
OS:Version,
  {03c8729c-3ed6-4136-927a-f17b25cdf44d}, !- Handle
  1.3.1;                                  !- Version Identifier

OS:SimulationControl,
  {a0cb3326-6322-4d23-81fa-099f0e6c22f7}, !- Handle
  Yes,                                    !- Do Zone Sizing Calculation
  Yes,                                    !- Do System Sizing Calculation
  ,                                       !- Do Plant Sizing Calculation
  No,                                     !- Run Simulation for Sizing Periods
  Yes;                                    !- Run Simulation for Weather File Run Periods

OS:Timestep,
  {a2ce84e6-e356-4d45-ad97-abff4c2ff4bb}, !- Handle
  6;                                      !- Number of Timesteps per Hour

OS:RunPeriod,
  {5940623a-c3ac-4410-a393-8a43d850e79b}, !- Handle
  Run Period 1,                           !- Name
  1,                                      !- Begin Month
  1,                                      !- Begin Day of Month
  12,                                     !- End Month
  31,                                     !- End Day of Month
  No,                                     !- Use Weather File Holidays and Special Days
  No,                                     !- Use Weather File Daylight Saving Period
  No,                                     !- Apply Weekend Holiday Rule
  Yes,                                    !- Use Weather File Rain Indicators
  Yes,                                    !- Use Weather File Snow Indicators
  1;                                      !- Number of Times Runperiod to be Repeated

OS:SurfaceConvectionAlgorithm:Inside,
  {8aa78e00-7b52-491a-933c-d7b32f39d054}, !- Handle
  TARP;                                   !- Algorithm

OS:SurfaceConvectionAlgorithm:Outside,
  {509df9f8-a64e-4e05-997c-52daeaaa2222}, !- Handle
  DOE-2;                                  !- Algorithm

OS:HeatBalanceAlgorithm,
  {81d45305-75d1-4482-9af8-44e1a843dc18}, !- Handle
  ConductionTransferFunction,             !- Algorithm
  200;                                    !- Surface Temperature Upper Limit {F}

OS:ZoneAirHeatBalanceAlgorithm,
  {85081374-83e7-4b02-bc5c-d519d9259e0a}, !- Handle
  AnalyticalSolution;                     !- Algorithm

OS:ConvergenceLimits,
  {56c03f30-d9b8-4394-91d2-fc0d52573287}; !- Handle

OS:ShadowCalculation,
  {2a5fec1c-549f-4aad-9410-63faef784fa7}, !- Handle
  7,                                      !- Calculation Frequency
  15000;                                  !- Maximum Figures in Shadow Overlap Calculations

OS:Site,
  {77765dfe-12a6-4be7-a1cb-7e4aee798f4e}, !- Handle
  Site 1,                                 !- Name
  41.77,                                  !- Latitude {deg}
  -87.75,                                 !- Longitude {deg}
  -6,                                     !- Time Zone {hr}
  190,                                    !- Elevation {m}
  ;                                       !- Terrain

OS:Site:GroundTemperature:BuildingSurface,
  {7f7f9554-032c-4cec-a430-f7d436a2e70e}, !- Handle
  19.527,                                 !- January Ground Temperature {C}
  19.502,                                 !- February Ground Temperature {C}
  19.536,                                 !- March Ground Temperature {C}
  19.598,                                 !- April Ground Temperature {C}
  20.002,                                 !- May Ground Temperature {C}
  21.64,                                  !- June Ground Temperature {C}
  22.225,                                 !- July Ground Temperature {C}
  22.375,                                 !- August Ground Temperature {C}
  21.449,                                 !- September Ground Temperature {C}
  20.121,                                 !- October Ground Temperature {C}
  19.802,                                 !- November Ground Temperature {C}
  19.633;                                 !- December Ground Temperature {C}

OS:Site:WaterMainsTemperature,
  {35de2e9b-924f-4da5-8ada-4e8c520c0d2b}, !- Handle
  Correlation,                            !- Calculation Method
  ,                                       !- Temperature Schedule Name
  9.69,                                   !- Annual Average Outdoor Air Temperature {C}
  28.1;                                   !- Maximum Difference In Monthly Average Outdoor Air Temperatures {deltaC}

OS:SizingPeriod:DesignDay,
  {feba3918-60cc-41d5-9b90-782a6332420e}, !- Handle
  Sizing Period Design Day 1,             !- Name
  -20.6,                                  !- Maximum Dry-Bulb Temperature {C}
  0,                                      !- Daily Dry-Bulb Temperature Range {deltaC}
  -20.6,                                  !- Humidity Indicating Conditions at Maximum Dry-Bulb {BasedOnField A3}
  99063,                                  !- Barometric Pressure {Pa}
  4.9,                                    !- Wind Speed {m/s}
  270,                                    !- Wind Direction {deg}
  0,                                      !- Sky Clearness
  0,                                      !- Rain Indicator
  0,                                      !- Snow Indicator
  21,                                     !- Day of Month
  1,                                      !- Month
  WinterDesignDay,                        !- Day Type
  0,                                      !- Daylight Saving Time Indicator
  WetBulb,                                !- Humidity Indicating Type
  ,                                       !- Humidity Indicating Day Schedule Name
  DefaultMultipliers,                     !- Dry-Bulb Temperature Range Modifier Type
  ,                                       !- Dry-Bulb Temperature Range Modifier Schedule Name
  AshraeClearSky;                         !- Solar Model Indicator

OS:SizingPeriod:DesignDay,
  {6a89c0f4-d0b7-4f95-841d-b9d7cf0d2c6e}, !- Handle
  Sizing Period Design Day 2,             !- Name
  33.2,                                   !- Maximum Dry-Bulb Temperature {C}
  10.7,                                   !- Daily Dry-Bulb Temperature Range {deltaC}
  23.8,                                   !- Humidity Indicating Conditions at Maximum Dry-Bulb {BasedOnField A3}
  99063,                                  !- Barometric Pressure {Pa}
  5.3,                                    !- Wind Speed {m/s}
  230,                                    !- Wind Direction {deg}
  1,                                      !- Sky Clearness
  0,                                      !- Rain Indicator
  0,                                      !- Snow Indicator
  21,                                     !- Day of Month
  7,                                      !- Month
  SummerDesignDay,                        !- Day Type
  0,                                      !- Daylight Saving Time Indicator
  WetBulb,                                !- Humidity Indicating Type
  ,                                       !- Humidity Indicating Day Schedule Name
  DefaultMultipliers,                     !- Dry-Bulb Temperature Range Modifier Type
  ,                                       !- Dry-Bulb Temperature Range Modifier Schedule Name
  AshraeClearSky;                         !- Solar Model Indicator

OS:ScheduleTypeLimits,
  {8890255c-ca70-43dc-bad9-fcbbe433d716}, !- Handle
  Temperature,                            !- Name
  -60,                                    !- Lower Limit Value {BasedOnField A4}
  200,                                    !- Upper Limit Value {BasedOnField A4}
  CONTINUOUS,                             !- Numeric Type
  Temperature;                            !- Unit Type

OS:DefaultScheduleSet,
  {af100bf8-64f2-46a4-b130-cf46e9c11d02}, !- Handle
  Default Schedules,                      !- Name
  ,                                       !- Hours of Operation Schedule Name
  {7bda8cb8-e5cd-434b-a460-69feba2af927}, !- Number of People Schedule Name
  {f80f109d-88a6-4d02-a230-beba95a763f6}, !- People Activity Level Schedule Name
  {956e8098-0ab3-4cf3-98b5-55d3910e10d7}, !- Lighting Schedule Name
  {538e99d7-7899-41d1-b3d7-d3a4f7323732}, !- Electric Equipment Schedule Name
  {d16b5d86-b73f-4f96-a620-d21bc50907e1}, !- Gas Equipment Schedule Name
  {33a8310e-3c3b-47a6-bcb8-4a87cccd2890}, !- Hot Water Equipment Schedule Name
  {69ea3b72-bde1-431a-aac1-86857d4a7c37}, !- Infiltration Schedule Name
  ,                                       !- Steam Equipment Schedule Name
  ;                                       !- Other Equipment Schedule Name

OS:Schedule:Ruleset,
  {7bda8cb8-e5cd-434b-a460-69feba2af927}, !- Handle
  Medium Office Number of People Schedule, !- Name
  {dd145e16-484f-4821-987b-37319fb5b153}, !- Schedule Type Limits Name
  {554eba4f-f8d1-457a-bed2-8db01ebef770}, !- Default Day Schedule Name
  {bc0f7ba7-2081-4ba6-8849-65a332dcddee}; !- Summer Design Day Schedule Name

OS:Schedule:Day,
  {554eba4f-f8d1-457a-bed2-8db01ebef770}, !- Handle
  Medium Office Number of People All Other Days Schedule, !- Name
  {dd145e16-484f-4821-987b-37319fb5b153}, !- Schedule Type Limits Name
  ,                                       !- Interpolate to Timestep
  24,                                     !- Hour 1
  0,                                      !- Minute 1
  0;                                      !- Value Until Time 1

OS:Schedule:Day,
  {220c4972-48a3-4c61-af06-ed55516e5fea}, !- Handle
  Medium Office Number of People Summer Design Day Schedule, !- Name
  ,                                       !- Schedule Type Limits Name
  ,                                       !- Interpolate to Timestep
  6,                                      !- Hour 1
  0,                                      !- Minute 1
  0,                                      !- Value Until Time 1
  22,                                     !- Hour 2
  0,                                      !- Minute 2
  1,                                      !- Value Until Time 2
  24,                                     !- Hour 3
  0,                                      !- Minute 3
  0.05;                                   !- Value Until Time 3

OS:Schedule:Day,
  {bc0f7ba7-2081-4ba6-8849-65a332dcddee}, !- Handle
  Medium Office Number of People Summer Design Day Schedule 1, !- Name
  {dd145e16-484f-4821-987b-37319fb5b153}, !- Schedule Type Limits Name
  ,                                       !- Interpolate to Timestep
  6,                                      !- Hour 1
  0,                                      !- Minute 1
  0,                                      !- Value Until Time 1
  22,                                     !- Hour 2
  0,                                      !- Minute 2
  1,                                      !- Value Until Time 2
  24,                                     !- Hour 3
  0,                                      !- Minute 3
  0.05;                                   !- Value Until Time 3

OS:Schedule:Rule,
  {fc2ad2b8-08aa-49e5-a044-3bbffcc44631}, !- Handle
  Medium Office Number of People Schedule Weekdays Rule, !- Name
  {7bda8cb8-e5cd-434b-a460-69feba2af927}, !- Schedule Ruleset Name
  1,                                      !- Rule Order
  {8dbb3a5e-6f91-4f25-b224-a2de24ad4e52}, !- Day Schedule Name
  ,                                       !- Apply Sunday
  Yes,                                    !- Apply Monday
  Yes,                                    !- Apply Tuesday
  Yes,                                    !- Apply Wednesday
  Yes,                                    !- Apply Thursday
  Yes;                                    !- Apply Friday

OS:Schedule:Day,
  {8dbb3a5e-6f91-4f25-b224-a2de24ad4e52}, !- Handle
  Medium Office Number of People Weekdays Schedule, !- Name
  {dd145e16-484f-4821-987b-37319fb5b153}, !- Schedule Type Limits Name
  ,                                       !- Interpolate to Timestep
  6,                                      !- Hour 1
  0,                                      !- Minute 1
  0,                                      !- Value Until Time 1
  7,                                      !- Hour 2
  0,                                      !- Minute 2
  0.1,                                    !- Value Until Time 2
  8,                                      !- Hour 3
  0,                                      !- Minute 3
  0.2,                                    !- Value Until Time 3
  12,                                     !- Hour 4
  0,                                      !- Minute 4
  0.95,                                   !- Value Until Time 4
  13,                                     !- Hour 5
  0,                                      !- Minute 5
  0.5,                                    !- Value Until Time 5
  17,                                     !- Hour 6
  0,                                      !- Minute 6
  0.95,                                   !- Value Until Time 6
  18,                                     !- Hour 7
  0,                                      !- Minute 7
  0.7,                                    !- Value Until Time 7
  20,                                     !- Hour 8
  0,                                      !- Minute 8
  0.4,                                    !- Value Until Time 8
  22,                                     !- Hour 9
  0,                                      !- Minute 9
  0.1,                                    !- Value Until Time 9
  24,                                     !- Hour 10
  0,                                      !- Minute 10
  0.05;                                   !- Value Until Time 10

OS:Schedule:Rule,
  {a119bc4f-80a9-4f4c-b939-a45ab7d0020c}, !- Handle
  Medium Office Number of People Schedule Saturday Rule, !- Name
  {7bda8cb8-e5cd-434b-a460-69feba2af927}, !- Schedule Ruleset Name
  0,                                      !- Rule Order
  {eaa9d3b0-c2d6-4219-8102-55edc384f9d4}, !- Day Schedule Name
  ,                                       !- Apply Sunday
  ,                                       !- Apply Monday
  ,                                       !- Apply Tuesday
  ,                                       !- Apply Wednesday
  ,                                       !- Apply Thursday
  ,                                       !- Apply Friday
  Yes;                                    !- Apply Saturday

OS:Schedule:Day,
  {eaa9d3b0-c2d6-4219-8102-55edc384f9d4}, !- Handle
  Medium Office Number of People Saturday Schedule, !- Name
  {dd145e16-484f-4821-987b-37319fb5b153}, !- Schedule Type Limits Name
  ,                                       !- Interpolate to Timestep
  6,                                      !- Hour 1
  0,                                      !- Minute 1
  0,                                      !- Value Until Time 1
  8,                                      !- Hour 2
  0,                                      !- Minute 2
  0.1,                                    !- Value Until Time 2
  14,                                     !- Hour 3
  0,                                      !- Minute 3
  0.5,                                    !- Value Until Time 3
  17,                                     !- Hour 4
  0,                                      !- Minute 4
  0.1,                                    !- Value Until Time 4
  24,                                     !- Hour 5
  0,                                      !- Minute 5
  0;                                      !- Value Until Time 5

OS:ScheduleTypeLimits,
  {dd145e16-484f-4821-987b-37319fb5b153}, !- Handle
  Fractional,                             !- Name
  0,                                      !- Lower Limit Value {BasedOnField A4}
  1,                                      !- Upper Limit Value {BasedOnField A4}
  Continuous;                             !- Numeric Type

OS:Schedule:Ruleset,
  {f80f109d-88a6-4d02-a230-beba95a763f6}, !- Handle
  Medium Office People Activity Level Schedule, !- Name
  {8f79b0a6-6697-4e1a-9970-25fff89b88bd}, !- Schedule Type Limits Name
  {7e81e2c3-c137-4c7b-9a24-0b0d7f8d2777}; !- Default Day Schedule Name

OS:Schedule:Day,
  {7e81e2c3-c137-4c7b-9a24-0b0d7f8d2777}, !- Handle
  Medium Office People Activity Level All Days Schedule, !- Name
  {8f79b0a6-6697-4e1a-9970-25fff89b88bd}, !- Schedule Type Limits Name
  ,                                       !- Interpolate to Timestep
  24,                                     !- Hour 1
  0,                                      !- Minute 1
  120;                                    !- Value Until Time 1

OS:ScheduleTypeLimits,
  {8f79b0a6-6697-4e1a-9970-25fff89b88bd}, !- Handle
  ActivityLevel,                          !- Name
  0,                                      !- Lower Limit Value {BasedOnField A4}
  ,                                       !- Upper Limit Value {BasedOnField A4}
  Continuous,                             !- Numeric Type
  ActivityLevel;                          !- Unit Type

OS:Schedule:Ruleset,
  {956e8098-0ab3-4cf3-98b5-55d3910e10d7}, !- Handle
  Medium Office Lighting Schedule,        !- Name
  {dd145e16-484f-4821-987b-37319fb5b153}, !- Schedule Type Limits Name
  {60c77df2-c89d-4451-a657-4185a0f02c4c}, !- Default Day Schedule Name
  {105ef1b5-0b59-4c06-84a7-403c5b734bed}, !- Summer Design Day Schedule Name
  {4d700b8a-decd-44ca-bc14-5217fb4aa608}; !- Winter Design Day Schedule Name

OS:Schedule:Day,
  {60c77df2-c89d-4451-a657-4185a0f02c4c}, !- Handle
  Medium Office Lighting All Other Days Schedule, !- Name
  {dd145e16-484f-4821-987b-37319fb5b153}, !- Schedule Type Limits Name
  ,                                       !- Interpolate to Timestep
  24,                                     !- Hour 1
  0,                                      !- Minute 1
  0.05;                                   !- Value Until Time 1

OS:Schedule:Day,
  {859e7024-624e-45ad-83c6-6ae3ac8ca2de}, !- Handle
  Medium Office Lighting Summer Design Day Schedule, !- Name
  ,                                       !- Schedule Type Limits Name
  ,                                       !- Interpolate to Timestep
  6,                                      !- Hour 1
  0,                                      !- Minute 1
  1,                                      !- Value Until Time 1
  24,                                     !- Hour 2
  0,                                      !- Minute 2
  0;                                      !- Value Until Time 2

OS:Schedule:Day,
  {105ef1b5-0b59-4c06-84a7-403c5b734bed}, !- Handle
  Medium Office Lighting Summer Design Day Schedule 1, !- Name
  {dd145e16-484f-4821-987b-37319fb5b153}, !- Schedule Type Limits Name
  ,                                       !- Interpolate to Timestep
  6,                                      !- Hour 1
  0,                                      !- Minute 1
  1,                                      !- Value Until Time 1
  24,                                     !- Hour 2
  0,                                      !- Minute 2
  0;                                      !- Value Until Time 2

OS:Schedule:Day,
  {6f0ab5de-7692-4543-aed6-e72dda4799e2}, !- Handle
  Medium Office Lighting Winter Design Day Schedule, !- Name
  ,                                       !- Schedule Type Limits Name
  ,                                       !- Interpolate to Timestep
  24,                                     !- Hour 1
  0,                                      !- Minute 1
  0;                                      !- Value Until Time 1

OS:Schedule:Day,
  {4d700b8a-decd-44ca-bc14-5217fb4aa608}, !- Handle
  Medium Office Lighting Winter Design Day Schedule 1, !- Name
  {dd145e16-484f-4821-987b-37319fb5b153}, !- Schedule Type Limits Name
  ,                                       !- Interpolate to Timestep
  24,                                     !- Hour 1
  0,                                      !- Minute 1
  0;                                      !- Value Until Time 1

OS:Schedule:Rule,
  {309a4cb6-d9a3-45be-acd4-9351e42b6e8a}, !- Handle
  Medium Office Lighting Schedule Weekdays Rule, !- Name
  {956e8098-0ab3-4cf3-98b5-55d3910e10d7}, !- Schedule Ruleset Name
  1,                                      !- Rule Order
  {8bc432b0-292d-472e-8dd2-43c2d03cdc23}, !- Day Schedule Name
  ,                                       !- Apply Sunday
  Yes,                                    !- Apply Monday
  Yes,                                    !- Apply Tuesday
  Yes,                                    !- Apply Wednesday
  Yes,                                    !- Apply Thursday
  Yes;                                    !- Apply Friday

OS:Schedule:Day,
  {8bc432b0-292d-472e-8dd2-43c2d03cdc23}, !- Handle
  Medium Office Lighting Weekdays Schedule, !- Name
  {dd145e16-484f-4821-987b-37319fb5b153}, !- Schedule Type Limits Name
  ,                                       !- Interpolate to Timestep
  5,                                      !- Hour 1
  0,                                      !- Minute 1
  0.05,                                   !- Value Until Time 1
  7,                                      !- Hour 2
  0,                                      !- Minute 2
  0.1,                                    !- Value Until Time 2
  8,                                      !- Hour 3
  0,                                      !- Minute 3
  0.3,                                    !- Value Until Time 3
  17,                                     !- Hour 4
  0,                                      !- Minute 4
  0.9,                                    !- Value Until Time 4
  18,                                     !- Hour 5
  0,                                      !- Minute 5
  0.7,                                    !- Value Until Time 5
  20,                                     !- Hour 6
  0,                                      !- Minute 6
  0.5,                                    !- Value Until Time 6
  22,                                     !- Hour 7
  0,                                      !- Minute 7
  0.3,                                    !- Value Until Time 7
  23,                                     !- Hour 8
  0,                                      !- Minute 8
  0.1,                                    !- Value Until Time 8
  24,                                     !- Hour 9
  0,                                      !- Minute 9
  0.05;                                   !- Value Until Time 9

OS:Schedule:Rule,
  {aa0877a2-d360-4c17-a4c9-704b5a1bc5b3}, !- Handle
  Medium Office Lighting Schedule Saturday Rule, !- Name
  {956e8098-0ab3-4cf3-98b5-55d3910e10d7}, !- Schedule Ruleset Name
  0,                                      !- Rule Order
  {87c24bcd-837b-47b3-8f3d-5156e5876e74}, !- Day Schedule Name
  ,                                       !- Apply Sunday
  ,                                       !- Apply Monday
  ,                                       !- Apply Tuesday
  ,                                       !- Apply Wednesday
  ,                                       !- Apply Thursday
  ,                                       !- Apply Friday
  Yes;                                    !- Apply Saturday

OS:Schedule:Day,
  {87c24bcd-837b-47b3-8f3d-5156e5876e74}, !- Handle
  Medium Office Lighting Saturday Schedule, !- Name
  {dd145e16-484f-4821-987b-37319fb5b153}, !- Schedule Type Limits Name
  ,                                       !- Interpolate to Timestep
  6,                                      !- Hour 1
  0,                                      !- Minute 1
  0.05,                                   !- Value Until Time 1
  8,                                      !- Hour 2
  0,                                      !- Minute 2
  0.1,                                    !- Value Until Time 2
  14,                                     !- Hour 3
  0,                                      !- Minute 3
  0.5,                                    !- Value Until Time 3
  17,                                     !- Hour 4
  0,                                      !- Minute 4
  0.15,                                   !- Value Until Time 4
  24,                                     !- Hour 5
  0,                                      !- Minute 5
  0.05;                                   !- Value Until Time 5

OS:Schedule:Ruleset,
  {538e99d7-7899-41d1-b3d7-d3a4f7323732}, !- Handle
  Medium Office Electric Equipment Schedule, !- Name
  {dd145e16-484f-4821-987b-37319fb5b153}, !- Schedule Type Limits Name
  {57666fc9-20b3-4d4a-b85b-2e1e436ff130}, !- Default Day Schedule Name
  {e1a3c775-50b3-487e-a31f-43ecdb58c628}, !- Summer Design Day Schedule Name
  {b521fb45-970f-41bf-972b-9a2380243b69}; !- Winter Design Day Schedule Name

OS:Schedule:Day,
  {57666fc9-20b3-4d4a-b85b-2e1e436ff130}, !- Handle
  Medium Office Electric Equipment All Other Days Schedule, !- Name
  {dd145e16-484f-4821-987b-37319fb5b153}, !- Schedule Type Limits Name
  ,                                       !- Interpolate to Timestep
  24,                                     !- Hour 1
  0,                                      !- Minute 1
  0.3;                                    !- Value Until Time 1

OS:Schedule:Day,
  {b0cd004c-0e2e-4631-91a0-419e57644c80}, !- Handle
  Medium Office Electric Equipment Summer Design Day Schedule, !- Name
  ,                                       !- Schedule Type Limits Name
  ,                                       !- Interpolate to Timestep
  6,                                      !- Hour 1
  0,                                      !- Minute 1
  1,                                      !- Value Until Time 1
  24,                                     !- Hour 2
  0,                                      !- Minute 2
  0;                                      !- Value Until Time 2

OS:Schedule:Day,
  {e1a3c775-50b3-487e-a31f-43ecdb58c628}, !- Handle
  Medium Office Electric Equipment Summer Design Day Schedule 1, !- Name
  {dd145e16-484f-4821-987b-37319fb5b153}, !- Schedule Type Limits Name
  ,                                       !- Interpolate to Timestep
  6,                                      !- Hour 1
  0,                                      !- Minute 1
  1,                                      !- Value Until Time 1
  24,                                     !- Hour 2
  0,                                      !- Minute 2
  0;                                      !- Value Until Time 2

OS:Schedule:Day,
  {de9f4287-f435-4e19-97d6-01e65d6e1c6d}, !- Handle
  Medium Office Electric Equipment Winter Design Day Schedule, !- Name
  ,                                       !- Schedule Type Limits Name
  ,                                       !- Interpolate to Timestep
  24,                                     !- Hour 1
  0,                                      !- Minute 1
  0;                                      !- Value Until Time 1

OS:Schedule:Day,
  {b521fb45-970f-41bf-972b-9a2380243b69}, !- Handle
  Medium Office Electric Equipment Winter Design Day Schedule 1, !- Name
  {dd145e16-484f-4821-987b-37319fb5b153}, !- Schedule Type Limits Name
  ,                                       !- Interpolate to Timestep
  24,                                     !- Hour 1
  0,                                      !- Minute 1
  0;                                      !- Value Until Time 1

OS:Schedule:Rule,
  {edb63c02-fe1e-4ea4-98f6-53f991a906b3}, !- Handle
  Medium Office Electric Equipment Schedule Weekdays Rule, !- Name
  {538e99d7-7899-41d1-b3d7-d3a4f7323732}, !- Schedule Ruleset Name
  1,                                      !- Rule Order
  {56c5ec92-ccdb-4a93-960d-d21c9c5c28bc}, !- Day Schedule Name
  ,                                       !- Apply Sunday
  Yes,                                    !- Apply Monday
  Yes,                                    !- Apply Tuesday
  Yes,                                    !- Apply Wednesday
  Yes,                                    !- Apply Thursday
  Yes;                                    !- Apply Friday

OS:Schedule:Day,
  {56c5ec92-ccdb-4a93-960d-d21c9c5c28bc}, !- Handle
  Medium Office Electric Equipment Weekdays Schedule, !- Name
  {dd145e16-484f-4821-987b-37319fb5b153}, !- Schedule Type Limits Name
  ,                                       !- Interpolate to Timestep
  8,                                      !- Hour 1
  0,                                      !- Minute 1
  0.4,                                    !- Value Until Time 1
  12,                                     !- Hour 2
  0,                                      !- Minute 2
  0.9,                                    !- Value Until Time 2
  13,                                     !- Hour 3
  0,                                      !- Minute 3
  0.8,                                    !- Value Until Time 3
  17,                                     !- Hour 4
  0,                                      !- Minute 4
  0.9,                                    !- Value Until Time 4
  18,                                     !- Hour 5
  0,                                      !- Minute 5
  0.8,                                    !- Value Until Time 5
  20,                                     !- Hour 6
  0,                                      !- Minute 6
  0.6,                                    !- Value Until Time 6
  22,                                     !- Hour 7
  0,                                      !- Minute 7
  0.5,                                    !- Value Until Time 7
  24,                                     !- Hour 8
  0,                                      !- Minute 8
  0.4;                                    !- Value Until Time 8

OS:Schedule:Rule,
  {e86d20d3-c363-4614-830a-a41318941df9}, !- Handle
  Medium Office Electric Equipment Schedule Saturday Rule, !- Name
  {538e99d7-7899-41d1-b3d7-d3a4f7323732}, !- Schedule Ruleset Name
  0,                                      !- Rule Order
  {0ecc0c3e-2fc4-4178-8284-0056d75f830b}, !- Day Schedule Name
  ,                                       !- Apply Sunday
  ,                                       !- Apply Monday
  ,                                       !- Apply Tuesday
  ,                                       !- Apply Wednesday