
OS:Version,
  {91925c2e-7e9c-4d37-b0df-503cb2af402c}, !- Handle
  1.5.3;                                  !- Version Identifier

OS:SimulationControl,
  {9aeb8d64-16a9-4412-b70a-e2a51aebd59d}, !- Handle
  Yes,                                    !- Do Zone Sizing Calculation
  Yes,                                    !- Do System Sizing Calculation
  ,                                       !- Do Plant Sizing Calculation
  No,                                     !- Run Simulation for Sizing Periods
  Yes;                                    !- Run Simulation for Weather File Run Periods

OS:Timestep,
  {b4593ee4-b9f1-44e6-9060-908796de7f33}, !- Handle
  6;                                      !- Number of Timesteps per Hour

OS:RunPeriod,
  {9c1edfbb-2266-4281-bad1-4cf2f3bce047}, !- Handle
  Run Period 1,                           !- Name
  1,                                      !- Begin Month
  1,                                      !- Begin Day of Month
  12,                                     !- End Month
  31,                                     !- End Day of Month
  No,                                     !- Use Weather File Holidays and Special Days
  No,                                     !- Use Weather File Daylight Saving Period
  No,                                     !- Apply Weekend Holiday Rule
  Yes,                                    !- Use Weather File Rain Indicators
  Yes,                                    !- Use Weather File Snow Indicators
  1;                                      !- Number of Times Runperiod to be Repeated

OS:SurfaceConvectionAlgorithm:Inside,
  {a6996970-2c3e-4470-9032-c2006fb53316}, !- Handle
  TARP;                                   !- Algorithm

OS:SurfaceConvectionAlgorithm:Outside,
  {8137dd33-a719-4e9f-8e17-e203f50e7ac1}, !- Handle
  DOE-2;                                  !- Algorithm

OS:HeatBalanceAlgorithm,
  {ec6d7f64-74f0-4495-8601-ea4881c26e14}, !- Handle
  ConductionTransferFunction,             !- Algorithm
  200;                                    !- Surface Temperature Upper Limit {F}

OS:ZoneAirHeatBalanceAlgorithm,
  {ca3d517b-9e3b-4e8c-8659-4a9cfbbcb80c}, !- Handle
  AnalyticalSolution;                     !- Algorithm

OS:ConvergenceLimits,
  {0b113170-c00b-4971-a666-2738e2274fc3}; !- Handle

OS:ShadowCalculation,
  {0a08bf0d-481d-41c8-af7d-ec69a7d61d1b}, !- Handle
  7,                                      !- Calculation Frequency
  15000;                                  !- Maximum Figures in Shadow Overlap Calculations

OS:Site,
  {77385203-7e39-47a9-95c6-02eca7e2c204}, !- Handle
  Site 1,                                 !- Name
  41.77,                                  !- Latitude {deg}
  -87.75,                                 !- Longitude {deg}
  -6,                                     !- Time Zone {hr}
  190,                                    !- Elevation {m}
  ;                                       !- Terrain

OS:Site:GroundTemperature:BuildingSurface,
  {51ff7649-40ba-44e5-a6af-b8eae56b8264}, !- Handle
  19.527,                                 !- January Ground Temperature {C}
  19.502,                                 !- February Ground Temperature {C}
  19.536,                                 !- March Ground Temperature {C}
  19.598,                                 !- April Ground Temperature {C}
  20.002,                                 !- May Ground Temperature {C}
  21.64,                                  !- June Ground Temperature {C}
  22.225,                                 !- July Ground Temperature {C}
  22.375,                                 !- August Ground Temperature {C}
  21.449,                                 !- September Ground Temperature {C}
  20.121,                                 !- October Ground Temperature {C}
  19.802,                                 !- November Ground Temperature {C}
  19.633;                                 !- December Ground Temperature {C}

OS:Site:WaterMainsTemperature,
  {9206e53a-0de4-4afe-a750-6e28dbb7ea5d}, !- Handle
  Correlation,                            !- Calculation Method
  ,                                       !- Temperature Schedule Name
  9.69,                                   !- Annual Average Outdoor Air Temperature {C}
  28.1;                                   !- Maximum Difference In Monthly Average Outdoor Air Temperatures {deltaC}

OS:SizingPeriod:DesignDay,
  {318a5849-bdfa-4e00-9abe-abe676142ef7}, !- Handle
  Sizing Period Design Day 1,             !- Name
  -20.6,                                  !- Maximum Dry-Bulb Temperature {C}
  0,                                      !- Daily Dry-Bulb Temperature Range {deltaC}
  -20.6,                                  !- Humidity Indicating Conditions at Maximum Dry-Bulb {BasedOnField A3}
  99063,                                  !- Barometric Pressure {Pa}
  4.9,                                    !- Wind Speed {m/s}
  270,                                    !- Wind Direction {deg}
  0,                                      !- Sky Clearness
  0,                                      !- Rain Indicator
  0,                                      !- Snow Indicator
  21,                                     !- Day of Month
  1,                                      !- Month
  WinterDesignDay,                        !- Day Type
  0,                                      !- Daylight Saving Time Indicator
  WetBulb,                                !- Humidity Indicating Type
  ,                                       !- Humidity Indicating Day Schedule Name
  DefaultMultipliers,                     !- Dry-Bulb Temperature Range Modifier Type
  ,                                       !- Dry-Bulb Temperature Range Modifier Schedule Name
  AshraeClearSky;                         !- Solar Model Indicator

OS:SizingPeriod:DesignDay,
  {9dedc911-e42d-47c6-aa56-1149b0a18ba7}, !- Handle
  Sizing Period Design Day 2,             !- Name
  33.2,                                   !- Maximum Dry-Bulb Temperature {C}
  10.7,                                   !- Daily Dry-Bulb Temperature Range {deltaC}
  23.8,                                   !- Humidity Indicating Conditions at Maximum Dry-Bulb {BasedOnField A3}
  99063,                                  !- Barometric Pressure {Pa}
  5.3,                                    !- Wind Speed {m/s}
  230,                                    !- Wind Direction {deg}
  1,                                      !- Sky Clearness
  0,                                      !- Rain Indicator
  0,                                      !- Snow Indicator
  21,                                     !- Day of Month
  7,                                      !- Month
  SummerDesignDay,                        !- Day Type
  0,                                      !- Daylight Saving Time Indicator
  WetBulb,                                !- Humidity Indicating Type
  ,                                       !- Humidity Indicating Day Schedule Name
  DefaultMultipliers,                     !- Dry-Bulb Temperature Range Modifier Type
  ,                                       !- Dry-Bulb Temperature Range Modifier Schedule Name
  AshraeClearSky;                         !- Solar Model Indicator

OS:ScheduleTypeLimits,
  {7e355630-4316-4978-8d1e-42f884f061f8}, !- Handle
  Temperature,                            !- Name
  -60,                                    !- Lower Limit Value {BasedOnField A4}
  200,                                    !- Upper Limit Value {BasedOnField A4}
  CONTINUOUS,                             !- Numeric Type
  Temperature;                            !- Unit Type

OS:DefaultScheduleSet,
  {14738171-0183-409e-97d2-7cb0bfa7f896}, !- Handle
  Default Schedules,                      !- Name
  ,                                       !- Hours of Operation Schedule Name
  {936e25e0-a601-47d3-a4f9-de3a2b36515a}, !- Number of People Schedule Name
  {02ce14ff-03ab-4fca-9a5a-94cee42919a0}, !- People Activity Level Schedule Name
  {a7da4cc8-abfb-4e8e-a3cf-313b0d32c3d0}, !- Lighting Schedule Name
  {30125fac-91c8-4f7e-ba15-180bbb912b6e}, !- Electric Equipment Schedule Name
  {66409465-2e8f-4ab8-9ce0-adb58f3508fc}, !- Gas Equipment Schedule Name
  {5ea8aa0b-ec49-4470-b3d7-422aeee3bb17}, !- Hot Water Equipment Schedule Name
  {1cbae0a6-7894-49b3-bf06-5c9f7ce4cd0b}, !- Infiltration Schedule Name
  ,                                       !- Steam Equipment Schedule Name
  ;                                       !- Other Equipment Schedule Name

OS:Schedule:Ruleset,
  {936e25e0-a601-47d3-a4f9-de3a2b36515a}, !- Handle
  Medium Office Number of People Schedule, !- Name
  {ee166311-b7ad-49e7-8641-fad63e44c3d5}, !- Schedule Type Limits Name
  {07540742-fc84-4c09-a799-1d2315d2bd38}, !- Default Day Schedule Name
  {0c35e7e8-5229-4885-a7bd-883c6a2614e2}; !- Summer Design Day Schedule Name

OS:Schedule:Day,
  {07540742-fc84-4c09-a799-1d2315d2bd38}, !- Handle
  Medium Office Number of People All Other Days Schedule, !- Name
  {ee166311-b7ad-49e7-8641-fad63e44c3d5}, !- Schedule Type Limits Name
  ,                                       !- Interpolate to Timestep
  24,                                     !- Hour 1
  0,                                      !- Minute 1
  0;                                      !- Value Until Time 1

OS:Schedule:Day,
  {90dacc8b-825f-4252-b010-91b8a33b3592}, !- Handle
  Medium Office Number of People Summer Design Day Schedule, !- Name
  ,                                       !- Schedule Type Limits Name
  ,                                       !- Interpolate to Timestep
  6,                                      !- Hour 1
  0,                                      !- Minute 1
  0,                                      !- Value Until Time 1
  22,                                     !- Hour 2
  0,                                      !- Minute 2
  1,                                      !- Value Until Time 2
  24,                                     !- Hour 3
  0,                                      !- Minute 3
  0.05;                                   !- Value Until Time 3

OS:Schedule:Day,
  {0c35e7e8-5229-4885-a7bd-883c6a2614e2}, !- Handle
  Medium Office Number of People Summer Design Day Schedule 1, !- Name
  {ee166311-b7ad-49e7-8641-fad63e44c3d5}, !- Schedule Type Limits Name
  ,                                       !- Interpolate to Timestep
  6,                                      !- Hour 1
  0,                                      !- Minute 1
  0,                                      !- Value Until Time 1
  22,                                     !- Hour 2
  0,                                      !- Minute 2
  1,                                      !- Value Until Time 2
  24,                                     !- Hour 3
  0,                                      !- Minute 3
  0.05;                                   !- Value Until Time 3

OS:Schedule:Rule,
  {f9685a0e-2ace-4833-9240-ad78ba96d6af}, !- Handle
  Medium Office Number of People Schedule Weekdays Rule, !- Name
  {936e25e0-a601-47d3-a4f9-de3a2b36515a}, !- Schedule Ruleset Name
  1,                                      !- Rule Order
  {b44f0673-4bb2-4236-960f-0aaff00686f2}, !- Day Schedule Name
  ,                                       !- Apply Sunday
  Yes,                                    !- Apply Monday
  Yes,                                    !- Apply Tuesday
  Yes,                                    !- Apply Wednesday
  Yes,                                    !- Apply Thursday
  Yes;                                    !- Apply Friday

OS:Schedule:Day,
  {b44f0673-4bb2-4236-960f-0aaff00686f2}, !- Handle
  Medium Office Number of People Weekdays Schedule, !- Name
  {ee166311-b7ad-49e7-8641-fad63e44c3d5}, !- Schedule Type Limits Name
  ,                                       !- Interpolate to Timestep
  6,                                      !- Hour 1
  0,                                      !- Minute 1
  0,                                      !- Value Until Time 1
  7,                                      !- Hour 2
  0,                                      !- Minute 2
  0.1,                                    !- Value Until Time 2
  8,                                      !- Hour 3
  0,                                      !- Minute 3
  0.2,                                    !- Value Until Time 3
  12,                                     !- Hour 4
  0,                                      !- Minute 4
  0.95,                                   !- Value Until Time 4
  13,                                     !- Hour 5
  0,                                      !- Minute 5
  0.5,                                    !- Value Until Time 5
  17,                                     !- Hour 6
  0,                                      !- Minute 6
  0.95,                                   !- Value Until Time 6
  18,                                     !- Hour 7
  0,                                      !- Minute 7
  0.7,                                    !- Value Until Time 7
  20,                                     !- Hour 8
  0,                                      !- Minute 8
  0.4,                                    !- Value Until Time 8
  22,                                     !- Hour 9
  0,                                      !- Minute 9
  0.1,                                    !- Value Until Time 9
  24,                                     !- Hour 10
  0,                                      !- Minute 10
  0.05;                                   !- Value Until Time 10

OS:Schedule:Rule,
  {92506d17-01e9-4e7f-b806-d7e0a42d3935}, !- Handle
  Medium Office Number of People Schedule Saturday Rule, !- Name
  {936e25e0-a601-47d3-a4f9-de3a2b36515a}, !- Schedule Ruleset Name
  0,                                      !- Rule Order
  {c5f5b401-c126-4bc9-bb07-4be17cbcac89}, !- Day Schedule Name
  ,                                       !- Apply Sunday
  ,                                       !- Apply Monday
  ,                                       !- Apply Tuesday
  ,                                       !- Apply Wednesday
  ,                                       !- Apply Thursday
  ,                                       !- Apply Friday
  Yes;                                    !- Apply Saturday

OS:Schedule:Day,
  {c5f5b401-c126-4bc9-bb07-4be17cbcac89}, !- Handle
  Medium Office Number of People Saturday Schedule, !- Name
  {ee166311-b7ad-49e7-8641-fad63e44c3d5}, !- Schedule Type Limits Name
  ,                                       !- Interpolate to Timestep
  6,                                      !- Hour 1
  0,                                      !- Minute 1
  0,                                      !- Value Until Time 1
  8,                                      !- Hour 2
  0,                                      !- Minute 2
  0.1,                                    !- Value Until Time 2
  14,                                     !- Hour 3
  0,                                      !- Minute 3
  0.5,                                    !- Value Until Time 3
  17,                                     !- Hour 4
  0,                                      !- Minute 4
  0.1,                                    !- Value Until Time 4
  24,                                     !- Hour 5
  0,                                      !- Minute 5
  0;                                      !- Value Until Time 5

OS:ScheduleTypeLimits,
  {ee166311-b7ad-49e7-8641-fad63e44c3d5}, !- Handle
  Fractional,                             !- Name
  0,                                      !- Lower Limit Value {BasedOnField A4}
  1,                                      !- Upper Limit Value {BasedOnField A4}
  Continuous;                             !- Numeric Type

OS:Schedule:Ruleset,
  {02ce14ff-03ab-4fca-9a5a-94cee42919a0}, !- Handle
  Medium Office People Activity Level Schedule, !- Name
  {0ba6769c-799d-4b62-924d-6ffb1c8d6482}, !- Schedule Type Limits Name
  {ec844f87-b809-45f9-94da-117f3b7af880}; !- Default Day Schedule Name

OS:Schedule:Day,
  {ec844f87-b809-45f9-94da-117f3b7af880}, !- Handle
  Medium Office People Activity Level All Days Schedule, !- Name
  {0ba6769c-799d-4b62-924d-6ffb1c8d6482}, !- Schedule Type Limits Name
  ,                                       !- Interpolate to Timestep
  24,                                     !- Hour 1
  0,                                      !- Minute 1
  120;                                    !- Value Until Time 1

OS:ScheduleTypeLimits,
  {0ba6769c-799d-4b62-924d-6ffb1c8d6482}, !- Handle
  ActivityLevel,                          !- Name
  0,                                      !- Lower Limit Value {BasedOnField A4}
  ,                                       !- Upper Limit Value {BasedOnField A4}
  Continuous,                             !- Numeric Type
  ActivityLevel;                          !- Unit Type

OS:Schedule:Ruleset,
  {a7da4cc8-abfb-4e8e-a3cf-313b0d32c3d0}, !- Handle
  Medium Office Lighting Schedule,        !- Name
  {ee166311-b7ad-49e7-8641-fad63e44c3d5}, !- Schedule Type Limits Name
  {223a2c4c-59e2-467b-aad9-75aa31240fb9}, !- Default Day Schedule Name
  {15897b92-000e-4077-84e1-70645828c497}, !- Summer Design Day Schedule Name
  {d468656c-b7a4-4f20-9ef8-c1a9e92ef545}; !- Winter Design Day Schedule Name

OS:Schedule:Day,
  {223a2c4c-59e2-467b-aad9-75aa31240fb9}, !- Handle
  Medium Office Lighting All Other Days Schedule, !- Name
  {ee166311-b7ad-49e7-8641-fad63e44c3d5}, !- Schedule Type Limits Name
  ,                                       !- Interpolate to Timestep
  24,                                     !- Hour 1
  0,                                      !- Minute 1
  0.05;                                   !- Value Until Time 1

OS:Schedule:Day,
  {5b97c6df-1126-4d32-b796-2fdb7222c051}, !- Handle
  Medium Office Lighting Summer Design Day Schedule, !- Name
  ,                                       !- Schedule Type Limits Name
  ,                                       !- Interpolate to Timestep
  6,                                      !- Hour 1
  0,                                      !- Minute 1
  1,                                      !- Value Until Time 1
  24,                                     !- Hour 2
  0,                                      !- Minute 2
  0;                                      !- Value Until Time 2

OS:Schedule:Day,
  {15897b92-000e-4077-84e1-70645828c497}, !- Handle
  Medium Office Lighting Summer Design Day Schedule 1, !- Name
  {ee166311-b7ad-49e7-8641-fad63e44c3d5}, !- Schedule Type Limits Name
  ,                                       !- Interpolate to Timestep
  6,                                      !- Hour 1
  0,                                      !- Minute 1
  1,                                      !- Value Until Time 1
  24,                                     !- Hour 2
  0,                                      !- Minute 2
  0;                                      !- Value Until Time 2

OS:Schedule:Day,
  {3ae596c0-8ebb-4bd3-a393-8eee76315657}, !- Handle
  Medium Office Lighting Winter Design Day Schedule, !- Name
  ,                                       !- Schedule Type Limits Name
  ,                                       !- Interpolate to Timestep
  24,                                     !- Hour 1
  0,                                      !- Minute 1
  0;                                      !- Value Until Time 1

OS:Schedule:Day,
  {d468656c-b7a4-4f20-9ef8-c1a9e92ef545}, !- Handle
  Medium Office Lighting Winter Design Day Schedule 1, !- Name
  {ee166311-b7ad-49e7-8641-fad63e44c3d5}, !- Schedule Type Limits Name
  ,                                       !- Interpolate to Timestep
  24,                                     !- Hour 1
  0,                                      !- Minute 1
  0;                                      !- Value Until Time 1

OS:Schedule:Rule,
  {2ee27b03-f925-485f-ade2-def6231df8b9}, !- Handle
  Medium Office Lighting Schedule Weekdays Rule, !- Name
  {a7da4cc8-abfb-4e8e-a3cf-313b0d32c3d0}, !- Schedule Ruleset Name
  1,                                      !- Rule Order
  {850ecc8e-2922-452a-9208-dddb0b44482b}, !- Day Schedule Name
  ,                                       !- Apply Sunday
  Yes,                                    !- Apply Monday
  Yes,                                    !- Apply Tuesday
  Yes,                                    !- Apply Wednesday
  Yes,                                    !- Apply Thursday
  Yes;                                    !- Apply Friday

OS:Schedule:Day,
  {850ecc8e-2922-452a-9208-dddb0b44482b}, !- Handle
  Medium Office Lighting Weekdays Schedule, !- Name
  {ee166311-b7ad-49e7-8641-fad63e44c3d5}, !- Schedule Type Limits Name
  ,                                       !- Interpolate to Timestep
  5,                                      !- Hour 1
  0,                                      !- Minute 1
  0.05,                                   !- Value Until Time 1
  7,                                      !- Hour 2
  0,                                      !- Minute 2
  0.1,                                    !- Value Until Time 2
  8,                                      !- Hour 3
  0,                                      !- Minute 3
  0.3,                                    !- Value Until Time 3
  17,                                     !- Hour 4
  0,                                      !- Minute 4
  0.9,                                    !- Value Until Time 4
  18,                                     !- Hour 5
  0,                                      !- Minute 5
  0.7,                                    !- Value Until Time 5
  20,                                     !- Hour 6
  0,                                      !- Minute 6
  0.5,                                    !- Value Until Time 6
  22,                                     !- Hour 7
  0,                                      !- Minute 7
  0.3,                                    !- Value Until Time 7
  23,                                     !- Hour 8
  0,                                      !- Minute 8
  0.1,                                    !- Value Until Time 8
  24,                                     !- Hour 9
  0,                                      !- Minute 9
  0.05;                                   !- Value Until Time 9

OS:Schedule:Rule,
  {912e6403-f07f-4505-b439-9a957bd27d0f}, !- Handle
  Medium Office Lighting Schedule Saturday Rule, !- Name
  {a7da4cc8-abfb-4e8e-a3cf-313b0d32c3d0}, !- Schedule Ruleset Name
  0,                                      !- Rule Order
  {a9a8ecd3-f3e4-4320-9d36-f44f15d87042}, !- Day Schedule Name
  ,                                       !- Apply Sunday
  ,                                       !- Apply Monday
  ,                                       !- Apply Tuesday
  ,                                       !- Apply Wednesday
  ,                                       !- Apply Thursday
  ,                                       !- Apply Friday
  Yes;                                    !- Apply Saturday

OS:Schedule:Day,
  {a9a8ecd3-f3e4-4320-9d36-f44f15d87042}, !- Handle
  Medium Office Lighting Saturday Schedule, !- Name
  {ee166311-b7ad-49e7-8641-fad63e44c3d5}, !- Schedule Type Limits Name
  ,                                       !- Interpolate to Timestep
  6,                                      !- Hour 1
  0,                                      !- Minute 1
  0.05,                                   !- Value Until Time 1
  8,                                      !- Hour 2
  0,                                      !- Minute 2
  0.1,                                    !- Value Until Time 2
  14,                                     !- Hour 3
  0,                                      !- Minute 3
  0.5,                                    !- Value Until Time 3
  17,                                     !- Hour 4
  0,                                      !- Minute 4
  0.15,                                   !- Value Until Time 4
  24,                                     !- Hour 5
  0,                                      !- Minute 5
  0.05;                                   !- Value Until Time 5

OS:Schedule:Ruleset,
  {30125fac-91c8-4f7e-ba15-180bbb912b6e}, !- Handle
  Medium Office Electric Equipment Schedule, !- Name
  {ee166311-b7ad-49e7-8641-fad63e44c3d5}, !- Schedule Type Limits Name
  {f27e7f19-ae95-4139-88f6-926bfb3011e0}, !- Default Day Schedule Name
  {72e1306f-313d-448e-b396-daa8f33fd1f6}, !- Summer Design Day Schedule Name
  {a2ce93b4-1fd0-4db2-81d3-fd8eac7016ac}; !- Winter Design Day Schedule Name

OS:Schedule:Day,
  {f27e7f19-ae95-4139-88f6-926bfb3011e0}, !- Handle
  Medium Office Electric Equipment All Other Days Schedule, !- Name
  {ee166311-b7ad-49e7-8641-fad63e44c3d5}, !- Schedule Type Limits Name
  ,                                       !- Interpolate to Timestep
  24,                                     !- Hour 1
  0,                                      !- Minute 1
  0.3;                                    !- Value Until Time 1

OS:Schedule:Day,
  {b2cf12d6-cfc5-49d1-b6ce-40c506f7ac72}, !- Handle
  Medium Office Electric Equipment Summer Design Day Schedule, !- Name
  ,                                       !- Schedule Type Limits Name
  ,                                       !- Interpolate to Timestep
  6,                                      !- Hour 1
  0,                                      !- Minute 1
  1,                                      !- Value Until Time 1
  24,                                     !- Hour 2
  0,                                      !- Minute 2
  0;                                      !- Value Until Time 2

OS:Schedule:Day,
  {72e1306f-313d-448e-b396-daa8f33fd1f6}, !- Handle
  Medium Office Electric Equipment Summer Design Day Schedule 1, !- Name
  {ee166311-b7ad-49e7-8641-fad63e44c3d5}, !- Schedule Type Limits Name
  ,                                       !- Interpolate to Timestep
  6,                                      !- Hour 1
  0,                                      !- Minute 1
  1,                                      !- Value Until Time 1
  24,                                     !- Hour 2
  0,                                      !- Minute 2
  0;                                      !- Value Until Time 2

OS:Schedule:Day,
  {4383fc5f-4efa-477e-a10c-4d4f51b51aa6}, !- Handle
  Medium Office Electric Equipment Winter Design Day Schedule, !- Name
  ,                                       !- Schedule Type Limits Name
  ,                                       !- Interpolate to Timestep
  24,                                     !- Hour 1
  0,                                      !- Minute 1
  0;                                      !- Value Until Time 1

OS:Schedule:Day,
  {a2ce93b4-1fd0-4db2-81d3-fd8eac7016ac}, !- Handle
  Medium Office Electric Equipment Winter Design Day Schedule 1, !- Name
  {ee166311-b7ad-49e7-8641-fad63e44c3d5}, !- Schedule Type Limits Name
  ,                                       !- Interpolate to Timestep
  24,                                     !- Hour 1
  0,                                      !- Minute 1
  0;                                      !- Value Until Time 1

OS:Schedule:Rule,
  {65fb3e36-2835-4e72-a9a2-060edac5bb4a}, !- Handle
  Medium Office Electric Equipment Schedule Weekdays Rule, !- Name
  {30125fac-91c8-4f7e-ba15-180bbb912b6e}, !- Schedule Ruleset Name
  1,                                      !- Rule Order
  {abbe2299-53b5-4283-8020-f9cdd11faaa6}, !- Day Schedule Name
  ,                                       !- Apply Sunday
  Yes,                                    !- Apply Monday
  Yes,                                    !- Apply Tuesday
  Yes,                                    !- Apply Wednesday
  Yes,                                    !- Apply Thursday
  Yes;                                    !- Apply Friday

OS:Schedule:Day,
  {abbe2299-53b5-4283-8020-f9cdd11faaa6}, !- Handle
  Medium Office Electric Equipment Weekdays Schedule, !- Name
  {ee166311-b7ad-49e7-8641-fad63e44c3d5}, !- Schedule Type Limits Name
  ,                                       !- Interpolate to Timestep
  8,                                      !- Hour 1
  0,                                      !- Minute 1
  0.4,                                    !- Value Until Time 1
  12,                                     !- Hour 2
  0,                                      !- Minute 2
  0.9,                                    !- Value Until Time 2
  13,                                     !- Hour 3
  0,                                      !- Minute 3
  0.8,                                    !- Value Until Time 3
  17,                                     !- Hour 4
  0,                                      !- Minute 4
  0.9,                                    !- Value Until Time 4
  18,                                     !- Hour 5
  0,                                      !- Minute 5
  0.8,                                    !- Value Until Time 5
  20,                                     !- Hour 6
  0,                                      !- Minute 6
  0.6,                                    !- Value Until Time 6
  22,                                     !- Hour 7
  0,                                      !- Minute 7
  0.5,                                    !- Value Until Time 7
  24,                                     !- Hour 8
  0,                                      !- Minute 8
  0.4;                                    !- Value Until Time 8

OS:Schedule:Rule,
  {0213f03b-38a2-40e9-be21-f4fcf28fac36}, !- Handle
  Medium Office Electric Equipment Schedule Saturday Rule, !- Name
  {30125fac-91c8-4f7e-ba15-180bbb912b6e}, !- Schedule Ruleset Name
  0,                                      !- Rule Order
  {bd024457-7f13-4cf8-84cd-aa5592fd5eaa}, !- Day Schedule Name
  ,                                       !- Apply Sunday
  ,                                       !- Apply Monday
  ,                                       !- Apply Tuesday
  ,                                       !- Apply Wednesday