
OS:Version,
  {a38d7386-0f33-4239-9c4c-848836152d70}, !- Handle
  1.1.1;                                  !- Version Identifier

OS:SimulationControl,
  {1e618fb3-efb1-4303-85be-d4572b8e5940}, !- Handle
  Yes,                                    !- Do Zone Sizing Calculation
  Yes,                                    !- Do System Sizing Calculation
  ,                                       !- Do Plant Sizing Calculation
  No,                                     !- Run Simulation for Sizing Periods
  Yes;                                    !- Run Simulation for Weather File Run Periods

OS:Timestep,
  {8c33b735-2d15-41be-bd5a-a7f98ecf352d}, !- Handle
  6;                                      !- Number of Timesteps per Hour

OS:RunPeriod,
  {7cf6e2d4-39aa-4957-8599-4fdea6802a44}, !- Handle
  Run Period 1,                           !- Name
  1,                                      !- Begin Month
  1,                                      !- Begin Day of Month
  12,                                     !- End Month
  31,                                     !- End Day of Month
  No,                                     !- Use Weather File Holidays and Special Days
  No,                                     !- Use Weather File Daylight Saving Period
  No,                                     !- Apply Weekend Holiday Rule
  Yes,                                    !- Use Weather File Rain Indicators
  Yes,                                    !- Use Weather File Snow Indicators
  1;                                      !- Number of Times Runperiod to be Repeated

OS:SurfaceConvectionAlgorithm:Inside,
  {8b113496-4608-4b09-9c00-81acf0d3cd69}, !- Handle
  TARP;                                   !- Algorithm

OS:SurfaceConvectionAlgorithm:Outside,
  {48a5f649-7757-4d7d-99dd-53cd71b873e9}, !- Handle
  DOE-2;                                  !- Algorithm

OS:HeatBalanceAlgorithm,
  {9baba633-e178-46c9-bb67-343edb1fee6e}, !- Handle
  ConductionTransferFunction,             !- Algorithm
  200;                                    !- Surface Temperature Upper Limit {F}

OS:ZoneAirHeatBalanceAlgorithm,
  {973f4134-bbc9-4013-bec6-9a57eac888d3}, !- Handle
  AnalyticalSolution;                     !- Algorithm

OS:ConvergenceLimits,
  {6b10e63c-5658-4edb-91e8-b7300bee4c9e}; !- Handle

OS:ShadowCalculation,
  {282f08c0-85c3-4f13-b9b1-383b6bb24994}, !- Handle
  7,                                      !- Calculation Frequency
  15000;                                  !- Maximum Figures in Shadow Overlap Calculations

OS:Site,
  {80f585ac-8d3d-42d7-80c1-02e04348436d}, !- Handle
  Site 1,                                 !- Name
  41.77,                                  !- Latitude {deg}
  -87.75,                                 !- Longitude {deg}
  -6,                                     !- Time Zone {hr}
  190,                                    !- Elevation {m}
  ;                                       !- Terrain

OS:Site:GroundTemperature:BuildingSurface,
  {e1c688e5-cf5b-4296-aa9b-e3524a6d2465}, !- Handle
  19.527,                                 !- January Ground Temperature {C}
  19.502,                                 !- February Ground Temperature {C}
  19.536,                                 !- March Ground Temperature {C}
  19.598,                                 !- April Ground Temperature {C}
  20.002,                                 !- May Ground Temperature {C}
  21.64,                                  !- June Ground Temperature {C}
  22.225,                                 !- July Ground Temperature {C}
  22.375,                                 !- August Ground Temperature {C}
  21.449,                                 !- September Ground Temperature {C}
  20.121,                                 !- October Ground Temperature {C}
  19.802,                                 !- November Ground Temperature {C}
  19.633;                                 !- December Ground Temperature {C}

OS:Site:WaterMainsTemperature,
  {5757eb2b-b9d8-4a8f-850e-ff64eaafb0b0}, !- Handle
  Correlation,                            !- Calculation Method
  ,                                       !- Temperature Schedule Name
  9.69,                                   !- Annual Average Outdoor Air Temperature {C}
  28.1;                                   !- Maximum Difference In Monthly Average Outdoor Air Temperatures {deltaC}

OS:SizingPeriod:DesignDay,
  {e47ceee5-05be-43c2-abac-989d442ba640}, !- Handle
  Sizing Period Design Day 1,             !- Name
  -20.6,                                  !- Maximum Dry-Bulb Temperature {C}
  0,                                      !- Daily Dry-Bulb Temperature Range {deltaC}
  -20.6,                                  !- Humidity Indicating Conditions at Maximum Dry-Bulb {BasedOnField A3}
  99063,                                  !- Barometric Pressure {Pa}
  4.9,                                    !- Wind Speed {m/s}
  270,                                    !- Wind Direction {deg}
  0,                                      !- Sky Clearness
  0,                                      !- Rain Indicator
  0,                                      !- Snow Indicator
  21,                                     !- Day of Month
  1,                                      !- Month
  WinterDesignDay,                        !- Day Type
  0,                                      !- Daylight Saving Time Indicator
  WetBulb,                                !- Humidity Indicating Type
  ,                                       !- Humidity Indicating Day Schedule Name
  DefaultMultipliers,                     !- Dry-Bulb Temperature Range Modifier Type
  ,                                       !- Dry-Bulb Temperature Range Modifier Schedule Name
  AshraeClearSky;                         !- Solar Model Indicator

OS:SizingPeriod:DesignDay,
  {2778b989-b7fb-4171-9044-38604480cf3f}, !- Handle
  Sizing Period Design Day 2,             !- Name
  33.2,                                   !- Maximum Dry-Bulb Temperature {C}
  10.7,                                   !- Daily Dry-Bulb Temperature Range {deltaC}
  23.8,                                   !- Humidity Indicating Conditions at Maximum Dry-Bulb {BasedOnField A3}
  99063,                                  !- Barometric Pressure {Pa}
  5.3,                                    !- Wind Speed {m/s}
  230,                                    !- Wind Direction {deg}
  1,                                      !- Sky Clearness
  0,                                      !- Rain Indicator
  0,                                      !- Snow Indicator
  21,                                     !- Day of Month
  7,                                      !- Month
  SummerDesignDay,                        !- Day Type
  0,                                      !- Daylight Saving Time Indicator
  WetBulb,                                !- Humidity Indicating Type
  ,                                       !- Humidity Indicating Day Schedule Name
  DefaultMultipliers,                     !- Dry-Bulb Temperature Range Modifier Type
  ,                                       !- Dry-Bulb Temperature Range Modifier Schedule Name
  AshraeClearSky;                         !- Solar Model Indicator

OS:ScheduleTypeLimits,
  {9b8301a0-b299-4816-b154-dab90e67f35b}, !- Handle
  Temperature,                            !- Name
  -60,                                    !- Lower Limit Value {BasedOnField A4}
  200,                                    !- Upper Limit Value {BasedOnField A4}
  CONTINUOUS,                             !- Numeric Type
  Temperature;                            !- Unit Type

OS:DefaultScheduleSet,
  {afc584e6-a0d6-4445-b0d3-8426ec9e0fbf}, !- Handle
  Default Schedules,                      !- Name
  ,                                       !- Hours of Operation Schedule Name
  {16dedbb0-8035-4cb0-b865-38db170b8d27}, !- Number of People Schedule Name
  {1fad2021-03cb-49d4-b5c9-473bafc4b037}, !- People Activity Level Schedule Name
  {b629aa44-f9a9-4572-a281-8a35289ca7af}, !- Lighting Schedule Name
  {0bac2d84-a991-4f41-be37-d47d200ed7d7}, !- Electric Equipment Schedule Name
  {97cb9093-3e4c-41d4-aac3-bb26cd0c51dc}, !- Gas Equipment Schedule Name
  {21e2abdc-2825-4bde-a3ce-9e2fc088c22f}, !- Hot Water Equipment Schedule Name
  {7c5161db-8680-45f4-9462-9b9278159f97}, !- Infiltration Schedule Name
  ,                                       !- Steam Equipment Schedule Name
  ;                                       !- Other Equipment Schedule Name

OS:Schedule:Ruleset,
  {16dedbb0-8035-4cb0-b865-38db170b8d27}, !- Handle
  Medium Office Number of People Schedule, !- Name
  {f8d45a2c-250d-43b4-a4d0-34dbe95491cd}, !- Schedule Type Limits Name
  {54bd449f-0165-46f0-b661-d41872a92d71}, !- Default Day Schedule Name
  {22738443-9412-4a07-aa93-9ed3e80822f0}; !- Summer Design Day Schedule Name

OS:Schedule:Day,
  {54bd449f-0165-46f0-b661-d41872a92d71}, !- Handle
  Medium Office Number of People All Other Days Schedule, !- Name
  {f8d45a2c-250d-43b4-a4d0-34dbe95491cd}, !- Schedule Type Limits Name
  ,                                       !- Interpolate to Timestep
  24,                                     !- Hour 1
  0,                                      !- Minute 1
  0;                                      !- Value Until Time 1

OS:Schedule:Day,
  {70471fb4-ed1d-458f-bbb1-25300ee83553}, !- Handle
  Medium Office Number of People Summer Design Day Schedule, !- Name
  ,                                       !- Schedule Type Limits Name
  ,                                       !- Interpolate to Timestep
  6,                                      !- Hour 1
  0,                                      !- Minute 1
  0,                                      !- Value Until Time 1
  22,                                     !- Hour 2
  0,                                      !- Minute 2
  1,                                      !- Value Until Time 2
  24,                                     !- Hour 3
  0,                                      !- Minute 3
  0.05;                                   !- Value Until Time 3

OS:Schedule:Day,
  {22738443-9412-4a07-aa93-9ed3e80822f0}, !- Handle
  Medium Office Number of People Summer Design Day Schedule 1, !- Name
  {f8d45a2c-250d-43b4-a4d0-34dbe95491cd}, !- Schedule Type Limits Name
  ,                                       !- Interpolate to Timestep
  6,                                      !- Hour 1
  0,                                      !- Minute 1
  0,                                      !- Value Until Time 1
  22,                                     !- Hour 2
  0,                                      !- Minute 2
  1,                                      !- Value Until Time 2
  24,                                     !- Hour 3
  0,                                      !- Minute 3
  0.05;                                   !- Value Until Time 3

OS:Schedule:Rule,
  {ad898b1b-cf14-4f9a-bba9-0b7ee72f94a6}, !- Handle
  Medium Office Number of People Schedule Weekdays Rule, !- Name
  {16dedbb0-8035-4cb0-b865-38db170b8d27}, !- Schedule Ruleset Name
  1,                                      !- Rule Order
  {0cdc0283-2e38-4920-896b-55d1907b8db0}, !- Day Schedule Name
  ,                                       !- Apply Sunday
  Yes,                                    !- Apply Monday
  Yes,                                    !- Apply Tuesday
  Yes,                                    !- Apply Wednesday
  Yes,                                    !- Apply Thursday
  Yes;                                    !- Apply Friday

OS:Schedule:Day,
  {0cdc0283-2e38-4920-896b-55d1907b8db0}, !- Handle
  Medium Office Number of People Weekdays Schedule, !- Name
  {f8d45a2c-250d-43b4-a4d0-34dbe95491cd}, !- Schedule Type Limits Name
  ,                                       !- Interpolate to Timestep
  6,                                      !- Hour 1
  0,                                      !- Minute 1
  0,                                      !- Value Until Time 1
  7,                                      !- Hour 2
  0,                                      !- Minute 2
  0.1,                                    !- Value Until Time 2
  8,                                      !- Hour 3
  0,                                      !- Minute 3
  0.2,                                    !- Value Until Time 3
  12,                                     !- Hour 4
  0,                                      !- Minute 4
  0.95,                                   !- Value Until Time 4
  13,                                     !- Hour 5
  0,                                      !- Minute 5
  0.5,                                    !- Value Until Time 5
  17,                                     !- Hour 6
  0,                                      !- Minute 6
  0.95,                                   !- Value Until Time 6
  18,                                     !- Hour 7
  0,                                      !- Minute 7
  0.7,                                    !- Value Until Time 7
  20,                                     !- Hour 8
  0,                                      !- Minute 8
  0.4,                                    !- Value Until Time 8
  22,                                     !- Hour 9
  0,                                      !- Minute 9
  0.1,                                    !- Value Until Time 9
  24,                                     !- Hour 10
  0,                                      !- Minute 10
  0.05;                                   !- Value Until Time 10

OS:Schedule:Rule,
  {ac2632ca-0e35-4fd5-b683-2a7b50ff4b2f}, !- Handle
  Medium Office Number of People Schedule Saturday Rule, !- Name
  {16dedbb0-8035-4cb0-b865-38db170b8d27}, !- Schedule Ruleset Name
  0,                                      !- Rule Order
  {7c714ef0-3c7b-4054-91d2-67f8e8bcaf42}, !- Day Schedule Name
  ,                                       !- Apply Sunday
  ,                                       !- Apply Monday
  ,                                       !- Apply Tuesday
  ,                                       !- Apply Wednesday
  ,                                       !- Apply Thursday
  ,                                       !- Apply Friday
  Yes;                                    !- Apply Saturday

OS:Schedule:Day,
  {7c714ef0-3c7b-4054-91d2-67f8e8bcaf42}, !- Handle
  Medium Office Number of People Saturday Schedule, !- Name
  {f8d45a2c-250d-43b4-a4d0-34dbe95491cd}, !- Schedule Type Limits Name
  ,                                       !- Interpolate to Timestep
  6,                                      !- Hour 1
  0,                                      !- Minute 1
  0,                                      !- Value Until Time 1
  8,                                      !- Hour 2
  0,                                      !- Minute 2
  0.1,                                    !- Value Until Time 2
  14,                                     !- Hour 3
  0,                                      !- Minute 3
  0.5,                                    !- Value Until Time 3
  17,                                     !- Hour 4
  0,                                      !- Minute 4
  0.1,                                    !- Value Until Time 4
  24,                                     !- Hour 5
  0,                                      !- Minute 5
  0;                                      !- Value Until Time 5

OS:ScheduleTypeLimits,
  {f8d45a2c-250d-43b4-a4d0-34dbe95491cd}, !- Handle
  Fractional,                             !- Name
  0,                                      !- Lower Limit Value {BasedOnField A4}
  1,                                      !- Upper Limit Value {BasedOnField A4}
  Continuous;                             !- Numeric Type

OS:Schedule:Ruleset,
  {1fad2021-03cb-49d4-b5c9-473bafc4b037}, !- Handle
  Medium Office People Activity Level Schedule, !- Name
  {08af3f03-ec7d-43b1-89e8-3692bd6f41b6}, !- Schedule Type Limits Name
  {30e433dc-26fe-485c-93d4-d185d0bc9243}; !- Default Day Schedule Name

OS:Schedule:Day,
  {30e433dc-26fe-485c-93d4-d185d0bc9243}, !- Handle
  Medium Office People Activity Level All Days Schedule, !- Name
  {08af3f03-ec7d-43b1-89e8-3692bd6f41b6}, !- Schedule Type Limits Name
  ,                                       !- Interpolate to Timestep
  24,                                     !- Hour 1
  0,                                      !- Minute 1
  120;                                    !- Value Until Time 1

OS:ScheduleTypeLimits,
  {08af3f03-ec7d-43b1-89e8-3692bd6f41b6}, !- Handle
  ActivityLevel,                          !- Name
  0,                                      !- Lower Limit Value {BasedOnField A4}
  ,                                       !- Upper Limit Value {BasedOnField A4}
  Continuous,                             !- Numeric Type
  ActivityLevel;                          !- Unit Type

OS:Schedule:Ruleset,
  {b629aa44-f9a9-4572-a281-8a35289ca7af}, !- Handle
  Medium Office Lighting Schedule,        !- Name
  {f8d45a2c-250d-43b4-a4d0-34dbe95491cd}, !- Schedule Type Limits Name
  {c21261ea-7679-4326-b9d5-716a13189620}, !- Default Day Schedule Name
  {0c48f07d-4e70-42b2-b13c-4a9f3c48be4a}, !- Summer Design Day Schedule Name
  {acf8139a-f5a4-4107-b3bb-f78f0f899394}; !- Winter Design Day Schedule Name

OS:Schedule:Day,
  {c21261ea-7679-4326-b9d5-716a13189620}, !- Handle
  Medium Office Lighting All Other Days Schedule, !- Name
  {f8d45a2c-250d-43b4-a4d0-34dbe95491cd}, !- Schedule Type Limits Name
  ,                                       !- Interpolate to Timestep
  24,                                     !- Hour 1
  0,                                      !- Minute 1
  0.05;                                   !- Value Until Time 1

OS:Schedule:Day,
  {a3553ba3-5412-4175-9b78-b24322471077}, !- Handle
  Medium Office Lighting Summer Design Day Schedule, !- Name
  ,                                       !- Schedule Type Limits Name
  ,                                       !- Interpolate to Timestep
  6,                                      !- Hour 1
  0,                                      !- Minute 1
  1,                                      !- Value Until Time 1
  24,                                     !- Hour 2
  0,                                      !- Minute 2
  0;                                      !- Value Until Time 2

OS:Schedule:Day,
  {0c48f07d-4e70-42b2-b13c-4a9f3c48be4a}, !- Handle
  Medium Office Lighting Summer Design Day Schedule 1, !- Name
  {f8d45a2c-250d-43b4-a4d0-34dbe95491cd}, !- Schedule Type Limits Name
  ,                                       !- Interpolate to Timestep
  6,                                      !- Hour 1
  0,                                      !- Minute 1
  1,                                      !- Value Until Time 1
  24,                                     !- Hour 2
  0,                                      !- Minute 2
  0;                                      !- Value Until Time 2

OS:Schedule:Day,
  {0ee63891-2eec-40ed-8ec2-82e619ef4ff9}, !- Handle
  Medium Office Lighting Winter Design Day Schedule, !- Name
  ,                                       !- Schedule Type Limits Name
  ,                                       !- Interpolate to Timestep
  24,                                     !- Hour 1
  0,                                      !- Minute 1
  0;                                      !- Value Until Time 1

OS:Schedule:Day,
  {acf8139a-f5a4-4107-b3bb-f78f0f899394}, !- Handle
  Medium Office Lighting Winter Design Day Schedule 1, !- Name
  {f8d45a2c-250d-43b4-a4d0-34dbe95491cd}, !- Schedule Type Limits Name
  ,                                       !- Interpolate to Timestep
  24,                                     !- Hour 1
  0,                                      !- Minute 1
  0;                                      !- Value Until Time 1

OS:Schedule:Rule,
  {a83d7e11-0362-4303-8edc-565759cafa87}, !- Handle
  Medium Office Lighting Schedule Weekdays Rule, !- Name
  {b629aa44-f9a9-4572-a281-8a35289ca7af}, !- Schedule Ruleset Name
  1,                                      !- Rule Order
  {4ba915bd-297d-4025-b69f-1a28ec3aaa7c}, !- Day Schedule Name
  ,                                       !- Apply Sunday
  Yes,                                    !- Apply Monday
  Yes,                                    !- Apply Tuesday
  Yes,                                    !- Apply Wednesday
  Yes,                                    !- Apply Thursday
  Yes;                                    !- Apply Friday

OS:Schedule:Day,
  {4ba915bd-297d-4025-b69f-1a28ec3aaa7c}, !- Handle
  Medium Office Lighting Weekdays Schedule, !- Name
  {f8d45a2c-250d-43b4-a4d0-34dbe95491cd}, !- Schedule Type Limits Name
  ,                                       !- Interpolate to Timestep
  5,                                      !- Hour 1
  0,                                      !- Minute 1
  0.05,                                   !- Value Until Time 1
  7,                                      !- Hour 2
  0,                                      !- Minute 2
  0.1,                                    !- Value Until Time 2
  8,                                      !- Hour 3
  0,                                      !- Minute 3
  0.3,                                    !- Value Until Time 3
  17,                                     !- Hour 4
  0,                                      !- Minute 4
  0.9,                                    !- Value Until Time 4
  18,                                     !- Hour 5
  0,                                      !- Minute 5
  0.7,                                    !- Value Until Time 5
  20,                                     !- Hour 6
  0,                                      !- Minute 6
  0.5,                                    !- Value Until Time 6
  22,                                     !- Hour 7
  0,                                      !- Minute 7
  0.3,                                    !- Value Until Time 7
  23,                                     !- Hour 8
  0,                                      !- Minute 8
  0.1,                                    !- Value Until Time 8
  24,                                     !- Hour 9
  0,                                      !- Minute 9
  0.05;                                   !- Value Until Time 9

OS:Schedule:Rule,
  {efa6c5fb-62a1-40c9-874e-fa14fd9ead17}, !- Handle
  Medium Office Lighting Schedule Saturday Rule, !- Name
  {b629aa44-f9a9-4572-a281-8a35289ca7af}, !- Schedule Ruleset Name
  0,                                      !- Rule Order
  {ee2ad543-e68d-4df3-b78e-99c039fdb946}, !- Day Schedule Name
  ,                                       !- Apply Sunday
  ,                                       !- Apply Monday
  ,                                       !- Apply Tuesday
  ,                                       !- Apply Wednesday
  ,                                       !- Apply Thursday
  ,                                       !- Apply Friday
  Yes;                                    !- Apply Saturday

OS:Schedule:Day,
  {ee2ad543-e68d-4df3-b78e-99c039fdb946}, !- Handle
  Medium Office Lighting Saturday Schedule, !- Name
  {f8d45a2c-250d-43b4-a4d0-34dbe95491cd}, !- Schedule Type Limits Name
  ,                                       !- Interpolate to Timestep
  6,                                      !- Hour 1
  0,                                      !- Minute 1
  0.05,                                   !- Value Until Time 1
  8,                                      !- Hour 2
  0,                                      !- Minute 2
  0.1,                                    !- Value Until Time 2
  14,                                     !- Hour 3
  0,                                      !- Minute 3
  0.5,                                    !- Value Until Time 3
  17,                                     !- Hour 4
  0,                                      !- Minute 4
  0.15,                                   !- Value Until Time 4
  24,                                     !- Hour 5
  0,                                      !- Minute 5
  0.05;                                   !- Value Until Time 5

OS:Schedule:Ruleset,
  {0bac2d84-a991-4f41-be37-d47d200ed7d7}, !- Handle
  Medium Office Electric Equipment Schedule, !- Name
  {f8d45a2c-250d-43b4-a4d0-34dbe95491cd}, !- Schedule Type Limits Name
  {07801ad2-41b9-4d80-9524-b7f7079ba824}, !- Default Day Schedule Name
  {59ec5384-e7be-42a4-b268-f1aa64c0b4bf}, !- Summer Design Day Schedule Name
  {f84ac05d-ecca-48db-a0f2-6ed24db2d40c}; !- Winter Design Day Schedule Name

OS:Schedule:Day,
  {07801ad2-41b9-4d80-9524-b7f7079ba824}, !- Handle
  Medium Office Electric Equipment All Other Days Schedule, !- Name
  {f8d45a2c-250d-43b4-a4d0-34dbe95491cd}, !- Schedule Type Limits Name
  ,                                       !- Interpolate to Timestep
  24,                                     !- Hour 1
  0,                                      !- Minute 1
  0.3;                                    !- Value Until Time 1

OS:Schedule:Day,
  {b4d9d1cc-3fb2-456c-a2ba-03f79be54bb9}, !- Handle
  Medium Office Electric Equipment Summer Design Day Schedule, !- Name
  ,                                       !- Schedule Type Limits Name
  ,                                       !- Interpolate to Timestep
  6,                                      !- Hour 1
  0,                                      !- Minute 1
  1,                                      !- Value Until Time 1
  24,                                     !- Hour 2
  0,                                      !- Minute 2
  0;                                      !- Value Until Time 2

OS:Schedule:Day,
  {59ec5384-e7be-42a4-b268-f1aa64c0b4bf}, !- Handle
  Medium Office Electric Equipment Summer Design Day Schedule 1, !- Name
  {f8d45a2c-250d-43b4-a4d0-34dbe95491cd}, !- Schedule Type Limits Name
  ,                                       !- Interpolate to Timestep
  6,                                      !- Hour 1
  0,                                      !- Minute 1
  1,                                      !- Value Until Time 1
  24,                                     !- Hour 2
  0,                                      !- Minute 2
  0;                                      !- Value Until Time 2

OS:Schedule:Day,
  {157d6d75-667d-4ebc-a656-ba44457e95a7}, !- Handle
  Medium Office Electric Equipment Winter Design Day Schedule, !- Name
  ,                                       !- Schedule Type Limits Name
  ,                                       !- Interpolate to Timestep
  24,                                     !- Hour 1
  0,                                      !- Minute 1
  0;                                      !- Value Until Time 1

OS:Schedule:Day,
  {f84ac05d-ecca-48db-a0f2-6ed24db2d40c}, !- Handle
  Medium Office Electric Equipment Winter Design Day Schedule 1, !- Name
  {f8d45a2c-250d-43b4-a4d0-34dbe95491cd}, !- Schedule Type Limits Name
  ,                                       !- Interpolate to Timestep
  24,                                     !- Hour 1
  0,                                      !- Minute 1
  0;                                      !- Value Until Time 1

OS:Schedule:Rule,
  {8caa070b-906b-4cf7-950b-d7b8802cfe93}, !- Handle
  Medium Office Electric Equipment Schedule Weekdays Rule, !- Name
  {0bac2d84-a991-4f41-be37-d47d200ed7d7}, !- Schedule Ruleset Name
  1,                                      !- Rule Order
  {afc4f500-3982-417b-9131-ed0bce5d7d65}, !- Day Schedule Name
  ,                                       !- Apply Sunday
  Yes,                                    !- Apply Monday
  Yes,                                    !- Apply Tuesday
  Yes,                                    !- Apply Wednesday
  Yes,                                    !- Apply Thursday
  Yes;                                    !- Apply Friday

OS:Schedule:Day,
  {afc4f500-3982-417b-9131-ed0bce5d7d65}, !- Handle
  Medium Office Electric Equipment Weekdays Schedule, !- Name
  {f8d45a2c-250d-43b4-a4d0-34dbe95491cd}, !- Schedule Type Limits Name
  ,                                       !- Interpolate to Timestep
  8,                                      !- Hour 1
  0,                                      !- Minute 1
  0.4,                                    !- Value Until Time 1
  12,                                     !- Hour 2
  0,                                      !- Minute 2
  0.9,                                    !- Value Until Time 2
  13,                                     !- Hour 3
  0,                                      !- Minute 3
  0.8,                                    !- Value Until Time 3
  17,                                     !- Hour 4
  0,                                      !- Minute 4
  0.9,                                    !- Value Until Time 4
  18,                                     !- Hour 5
  0,                                      !- Minute 5
  0.8,                                    !- Value Until Time 5
  20,                                     !- Hour 6
  0,                                      !- Minute 6
  0.6,                                    !- Value Until Time 6
  22,                                     !- Hour 7
  0,                                      !- Minute 7
  0.5,                                    !- Value Until Time 7
  24,                                     !- Hour 8
  0,                                      !- Minute 8
  0.4;                                    !- Value Until Time 8

OS:Schedule:Rule,
  {9664da07-a343-4c9a-abf7-c5eabc52bd9d}, !- Handle
  Medium Office Electric Equipment Schedule Saturday Rule, !- Name
  {0bac2d84-a991-4f41-be37-d47d200ed7d7}, !- Schedule Ruleset Name
  0,                                      !- Rule Order
  {b48813c0-a7cd-4e64-a38b-26f5c992e5d9}, !- Day Schedule Name
  ,                                       !- Apply Sunday
  ,                                       !- Apply Monday
  ,                                       !- Apply Tuesday
  ,                                       !- Apply Wednesday