
OS:Version,
  {fd9235e5-7c1e-48be-b816-f6fb14251ced}, !- Handle
  1.13.3;                                 !- Version Identifier

OS:SimulationControl,
  {a8744c48-f661-48ce-a9b5-51165e20ebb6}, !- Handle
  Yes,                                    !- Do Zone Sizing Calculation
  Yes,                                    !- Do System Sizing Calculation
  ,                                       !- Do Plant Sizing Calculation
  No,                                     !- Run Simulation for Sizing Periods
  Yes;                                    !- Run Simulation for Weather File Run Periods

OS:Timestep,
  {a2f9ebdb-0e62-461d-b02a-bc0d5ef1550e}, !- Handle
  6;                                      !- Number of Timesteps per Hour

OS:RunPeriod,
  {3c92c865-4cd5-4d14-9d6f-4259d4cddc47}, !- Handle
  Run Period 1,                           !- Name
  1,                                      !- Begin Month
  1,                                      !- Begin Day of Month
  12,                                     !- End Month
  31,                                     !- End Day of Month
  No,                                     !- Use Weather File Holidays and Special Days
  No,                                     !- Use Weather File Daylight Saving Period
  No,                                     !- Apply Weekend Holiday Rule
  Yes,                                    !- Use Weather File Rain Indicators
  Yes,                                    !- Use Weather File Snow Indicators
  1;                                      !- Number of Times Runperiod to be Repeated

OS:SurfaceConvectionAlgorithm:Inside,
  {d3eb838d-e568-49af-937a-3bef7f8c50f8}, !- Handle
  TARP;                                   !- Algorithm

OS:SurfaceConvectionAlgorithm:Outside,
  {3df01b91-a6f5-42be-9a55-468a374be65d}, !- Handle
  DOE-2;                                  !- Algorithm

OS:HeatBalanceAlgorithm,
  {2b41ee98-df16-4b09-bb08-6791cb95aed7}, !- Handle
  ConductionTransferFunction,             !- Algorithm
  200;                                    !- Surface Temperature Upper Limit {C}

OS:ZoneAirHeatBalanceAlgorithm,
  {d2c97ade-5c3e-44f0-b9bb-82ff698e9111}, !- Handle
  ThirdOrderBackwardDifference;           !- Algorithm

OS:ConvergenceLimits,
  {8e7be7a8-3ccf-488b-ba93-364b7aae7e53}, !- Handle
  1;                                      !- Minimum System Timestep {minutes}

OS:ShadowCalculation,
  {006822ae-439f-40e2-9f86-34e156233c32}, !- Handle
  20,                                     !- Calculation Frequency
  15000;                                  !- Maximum Figures in Shadow Overlap Calculations

OS:Site,
  {20b986bc-24bc-45ff-a609-15be2c8bd542}, !- Handle
  Site 1,                                 !- Name
  41.77,                                  !- Latitude {deg}
  -87.75,                                 !- Longitude {deg}
  -6,                                     !- Time Zone {hr}
  190,                                    !- Elevation {m}
  ;                                       !- Terrain

OS:Site:GroundTemperature:BuildingSurface,
  {d4e7821d-5bb3-4e11-a50f-517a2eeca89c}, !- Handle
  19.527,                                 !- January Ground Temperature {C}
  19.502,                                 !- February Ground Temperature {C}
  19.536,                                 !- March Ground Temperature {C}
  19.598,                                 !- April Ground Temperature {C}
  20.002,                                 !- May Ground Temperature {C}
  21.64,                                  !- June Ground Temperature {C}
  22.225,                                 !- July Ground Temperature {C}
  22.375,                                 !- August Ground Temperature {C}
  21.449,                                 !- September Ground Temperature {C}
  20.121,                                 !- October Ground Temperature {C}
  19.802,                                 !- November Ground Temperature {C}
  19.633;                                 !- December Ground Temperature {C}

OS:Site:GroundTemperature:Deep,
  {3ee04b95-43a6-4f42-b7d4-78e7a193e923}, !- Handle
  19.527,                                 !- January Deep Ground Temperature {C}
  19.502,                                 !- February Deep Ground Temperature {C}
  19.536,                                 !- March Deep Ground Temperature {C}
  19.598,                                 !- April Deep Ground Temperature {C}
  20.002,                                 !- May Deep Ground Temperature {C}
  21.64,                                  !- June Deep Ground Temperature {C}
  22.225,                                 !- July Deep Ground Temperature {C}
  22.375,                                 !- August Deep Ground Temperature {C}
  21.449,                                 !- September Deep Ground Temperature {C}
  20.121,                                 !- October Deep Ground Temperature {C}
  19.802,                                 !- November Deep Ground Temperature {C}
  19.633;                                 !- December Deep Ground Temperature {C}

OS:Site:WaterMainsTemperature,
  {25ace624-87a7-4771-ba26-19fe3a67a7f4}, !- Handle
  Correlation,                            !- Calculation Method
  ,                                       !- Temperature Schedule Name
  9.69,                                   !- Annual Average Outdoor Air Temperature {C}
  28.1;                                   !- Maximum Difference In Monthly Average Outdoor Air Temperatures {deltaC}

OS:SizingPeriod:DesignDay,
  {0a3b7609-dc48-4c1b-a6ac-1786a5530daf}, !- Handle
  Sizing Period Design Day 1,             !- Name
  -20.6,                                  !- Maximum Dry-Bulb Temperature {C}
  0,                                      !- Daily Dry-Bulb Temperature Range {deltaC}
  -20.6,                                  !- Humidity Indicating Conditions at Maximum Dry-Bulb
  99063,                                  !- Barometric Pressure {Pa}
  4.9,                                    !- Wind Speed {m/s}
  270,                                    !- Wind Direction {deg}
  0,                                      !- Sky Clearness
  0,                                      !- Rain Indicator
  0,                                      !- Snow Indicator
  21,                                     !- Day of Month
  1,                                      !- Month
  WinterDesignDay,                        !- Day Type
  0,                                      !- Daylight Saving Time Indicator
  WetBulb,                                !- Humidity Indicating Type
  ,                                       !- Humidity Indicating Day Schedule Name
  DefaultMultipliers,                     !- Dry-Bulb Temperature Range Modifier Type
  ,                                       !- Dry-Bulb Temperature Range Modifier Schedule Name
  AshraeClearSky;                         !- Solar Model Indicator

OS:SizingPeriod:DesignDay,
  {b22b10c8-be50-4ff0-a98c-d69d806cf872}, !- Handle
  Sizing Period Design Day 2,             !- Name
  33.2,                                   !- Maximum Dry-Bulb Temperature {C}
  10.7,                                   !- Daily Dry-Bulb Temperature Range {deltaC}
  23.8,                                   !- Humidity Indicating Conditions at Maximum Dry-Bulb
  99063,                                  !- Barometric Pressure {Pa}
  5.3,                                    !- Wind Speed {m/s}
  230,                                    !- Wind Direction {deg}
  1,                                      !- Sky Clearness
  0,                                      !- Rain Indicator
  0,                                      !- Snow Indicator
  21,                                     !- Day of Month
  7,                                      !- Month
  SummerDesignDay,                        !- Day Type
  0,                                      !- Daylight Saving Time Indicator
  WetBulb,                                !- Humidity Indicating Type
  ,                                       !- Humidity Indicating Day Schedule Name
  DefaultMultipliers,                     !- Dry-Bulb Temperature Range Modifier Type
  ,                                       !- Dry-Bulb Temperature Range Modifier Schedule Name
  AshraeClearSky;                         !- Solar Model Indicator

OS:ScheduleTypeLimits,
  {2b58e0c1-8d11-4ff5-af02-04e08809f2b3}, !- Handle
  Temperature,                            !- Name
  -60,                                    !- Lower Limit Value
  200,                                    !- Upper Limit Value
  CONTINUOUS,                             !- Numeric Type
  Temperature;                            !- Unit Type

OS:DefaultScheduleSet,
  {aa6ca54a-c857-4bf2-b090-662a9719bb71}, !- Handle
  Default Schedules,                      !- Name
  ,                                       !- Hours of Operation Schedule Name
  {12dcddff-ce2b-4cec-88cb-5e92dfe7c0f8}, !- Number of People Schedule Name
  {a41e0fa3-c08a-4523-9339-9512c7110fc9}, !- People Activity Level Schedule Name
  {971521a8-fc8c-4956-985f-dcb29ab99091}, !- Lighting Schedule Name
  {e53c78d9-9bad-4903-877a-2f1adbf50a7c}, !- Electric Equipment Schedule Name
  {3dea17fc-a249-4aab-88a2-76e2049d8947}, !- Gas Equipment Schedule Name
  {c516a2b8-7a0c-4b1a-ba3d-0e84cde3efb7}, !- Hot Water Equipment Schedule Name
  {5035eba0-736a-40ab-b6ad-56047ef6c55b}, !- Infiltration Schedule Name
  ,                                       !- Steam Equipment Schedule Name
  ;                                       !- Other Equipment Schedule Name

OS:Schedule:Ruleset,
  {12dcddff-ce2b-4cec-88cb-5e92dfe7c0f8}, !- Handle
  Medium Office Number of People Schedule, !- Name
  {f8d754d9-87bb-47ee-8f06-093fb822c2ac}, !- Schedule Type Limits Name
  {c158421b-9357-47b1-9dee-6698c2df81e0}, !- Default Day Schedule Name
  {1af20a42-884f-451f-82fc-c0239eb354c5}; !- Summer Design Day Schedule Name

OS:Schedule:Day,
  {c158421b-9357-47b1-9dee-6698c2df81e0}, !- Handle
  Medium Office Number of People All Other Days Schedule, !- Name
  {f8d754d9-87bb-47ee-8f06-093fb822c2ac}, !- Schedule Type Limits Name
  ,                                       !- Interpolate to Timestep
  24,                                     !- Hour 1
  0,                                      !- Minute 1
  0;                                      !- Value Until Time 1

OS:Schedule:Day,
  {8496e256-840b-4c59-b367-28c837558c1f}, !- Handle
  Medium Office Number of People Summer Design Day Schedule, !- Name
  ,                                       !- Schedule Type Limits Name
  ,                                       !- Interpolate to Timestep
  6,                                      !- Hour 1
  0,                                      !- Minute 1
  0,                                      !- Value Until Time 1
  22,                                     !- Hour 2
  0,                                      !- Minute 2
  1,                                      !- Value Until Time 2
  24,                                     !- Hour 3
  0,                                      !- Minute 3
  0.05;                                   !- Value Until Time 3

OS:Schedule:Day,
  {1af20a42-884f-451f-82fc-c0239eb354c5}, !- Handle
  Medium Office Number of People Summer Design Day Schedule 1, !- Name
  {f8d754d9-87bb-47ee-8f06-093fb822c2ac}, !- Schedule Type Limits Name
  ,                                       !- Interpolate to Timestep
  6,                                      !- Hour 1
  0,                                      !- Minute 1
  0,                                      !- Value Until Time 1
  22,                                     !- Hour 2
  0,                                      !- Minute 2
  1,                                      !- Value Until Time 2
  24,                                     !- Hour 3
  0,                                      !- Minute 3
  0.05;                                   !- Value Until Time 3

OS:Schedule:Rule,
  {454768c3-697a-4044-8f5a-2e7db9e07796}, !- Handle
  Medium Office Number of People Schedule Weekdays Rule, !- Name
  {12dcddff-ce2b-4cec-88cb-5e92dfe7c0f8}, !- Schedule Ruleset Name
  1,                                      !- Rule Order
  {dbf42aac-0de1-482d-8191-655b4e41d057}, !- Day Schedule Name
  ,                                       !- Apply Sunday
  Yes,                                    !- Apply Monday
  Yes,                                    !- Apply Tuesday
  Yes,                                    !- Apply Wednesday
  Yes,                                    !- Apply Thursday
  Yes;                                    !- Apply Friday

OS:Schedule:Day,
  {dbf42aac-0de1-482d-8191-655b4e41d057}, !- Handle
  Medium Office Number of People Weekdays Schedule, !- Name
  {f8d754d9-87bb-47ee-8f06-093fb822c2ac}, !- Schedule Type Limits Name
  ,                                       !- Interpolate to Timestep
  6,                                      !- Hour 1
  0,                                      !- Minute 1
  0,                                      !- Value Until Time 1
  7,                                      !- Hour 2
  0,                                      !- Minute 2
  0.1,                                    !- Value Until Time 2
  8,                                      !- Hour 3
  0,                                      !- Minute 3
  0.2,                                    !- Value Until Time 3
  12,                                     !- Hour 4
  0,                                      !- Minute 4
  0.95,                                   !- Value Until Time 4
  13,                                     !- Hour 5
  0,                                      !- Minute 5
  0.5,                                    !- Value Until Time 5
  17,                                     !- Hour 6
  0,                                      !- Minute 6
  0.95,                                   !- Value Until Time 6
  18,                                     !- Hour 7
  0,                                      !- Minute 7
  0.7,                                    !- Value Until Time 7
  20,                                     !- Hour 8
  0,                                      !- Minute 8
  0.4,                                    !- Value Until Time 8
  22,                                     !- Hour 9
  0,                                      !- Minute 9
  0.1,                                    !- Value Until Time 9
  24,                                     !- Hour 10
  0,                                      !- Minute 10
  0.05;                                   !- Value Until Time 10

OS:Schedule:Rule,
  {3c0770fc-2d85-42da-8bfe-9d2ad4ccd4b4}, !- Handle
  Medium Office Number of People Schedule Saturday Rule, !- Name
  {12dcddff-ce2b-4cec-88cb-5e92dfe7c0f8}, !- Schedule Ruleset Name
  0,                                      !- Rule Order
  {6080aa13-956c-40a3-8683-65144b955bf8}, !- Day Schedule Name
  ,                                       !- Apply Sunday
  ,                                       !- Apply Monday
  ,                                       !- Apply Tuesday
  ,                                       !- Apply Wednesday
  ,                                       !- Apply Thursday
  ,                                       !- Apply Friday
  Yes;                                    !- Apply Saturday

OS:Schedule:Day,
  {6080aa13-956c-40a3-8683-65144b955bf8}, !- Handle
  Medium Office Number of People Saturday Schedule, !- Name
  {f8d754d9-87bb-47ee-8f06-093fb822c2ac}, !- Schedule Type Limits Name
  ,                                       !- Interpolate to Timestep
  6,                                      !- Hour 1
  0,                                      !- Minute 1
  0,                                      !- Value Until Time 1
  8,                                      !- Hour 2
  0,                                      !- Minute 2
  0.1,                                    !- Value Until Time 2
  14,                                     !- Hour 3
  0,                                      !- Minute 3
  0.5,                                    !- Value Until Time 3
  17,                                     !- Hour 4
  0,                                      !- Minute 4
  0.1,                                    !- Value Until Time 4
  24,                                     !- Hour 5
  0,                                      !- Minute 5
  0;                                      !- Value Until Time 5

OS:ScheduleTypeLimits,
  {f8d754d9-87bb-47ee-8f06-093fb822c2ac}, !- Handle
  Fractional,                             !- Name
  0,                                      !- Lower Limit Value
  1,                                      !- Upper Limit Value
  Continuous;                             !- Numeric Type

OS:Schedule:Ruleset,
  {a41e0fa3-c08a-4523-9339-9512c7110fc9}, !- Handle
  Medium Office People Activity Level Schedule, !- Name
  {ceb49bc4-28ee-43c0-9210-dd69240d220b}, !- Schedule Type Limits Name
  {e4656d3c-fc8f-4783-adbd-e7ebfd6a81d0}; !- Default Day Schedule Name

OS:Schedule:Day,
  {e4656d3c-fc8f-4783-adbd-e7ebfd6a81d0}, !- Handle
  Medium Office People Activity Level All Days Schedule, !- Name
  {ceb49bc4-28ee-43c0-9210-dd69240d220b}, !- Schedule Type Limits Name
  ,                                       !- Interpolate to Timestep
  24,                                     !- Hour 1
  0,                                      !- Minute 1
  120;                                    !- Value Until Time 1

OS:ScheduleTypeLimits,
  {ceb49bc4-28ee-43c0-9210-dd69240d220b}, !- Handle
  ActivityLevel,                          !- Name
  0,                                      !- Lower Limit Value
  ,                                       !- Upper Limit Value
  Continuous,                             !- Numeric Type
  ActivityLevel;                          !- Unit Type

OS:Schedule:Ruleset,
  {971521a8-fc8c-4956-985f-dcb29ab99091}, !- Handle
  Medium Office Lighting Schedule,        !- Name
  {f8d754d9-87bb-47ee-8f06-093fb822c2ac}, !- Schedule Type Limits Name
  {c8add4aa-ac1d-460c-88b4-eba0d8a4984e}, !- Default Day Schedule Name
  {ad0d6a2c-4f6a-4a7b-9105-94890f12b9de}, !- Summer Design Day Schedule Name
  {c6c0bd55-44f4-4189-9394-5f8437dc002a}; !- Winter Design Day Schedule Name

OS:Schedule:Day,
  {c8add4aa-ac1d-460c-88b4-eba0d8a4984e}, !- Handle
  Medium Office Lighting All Other Days Schedule, !- Name
  {f8d754d9-87bb-47ee-8f06-093fb822c2ac}, !- Schedule Type Limits Name
  ,                                       !- Interpolate to Timestep
  24,                                     !- Hour 1
  0,                                      !- Minute 1
  0.05;                                   !- Value Until Time 1

OS:Schedule:Day,
  {bd8a1083-6e9e-40eb-9fb2-80a3b6d09e92}, !- Handle
  Medium Office Lighting Summer Design Day Schedule, !- Name
  ,                                       !- Schedule Type Limits Name
  ,                                       !- Interpolate to Timestep
  6,                                      !- Hour 1
  0,                                      !- Minute 1
  1,                                      !- Value Until Time 1
  24,                                     !- Hour 2
  0,                                      !- Minute 2
  0;                                      !- Value Until Time 2

OS:Schedule:Day,
  {ad0d6a2c-4f6a-4a7b-9105-94890f12b9de}, !- Handle
  Medium Office Lighting Summer Design Day Schedule 1, !- Name
  {f8d754d9-87bb-47ee-8f06-093fb822c2ac}, !- Schedule Type Limits Name
  ,                                       !- Interpolate to Timestep
  6,                                      !- Hour 1
  0,                                      !- Minute 1
  1,                                      !- Value Until Time 1
  24,                                     !- Hour 2
  0,                                      !- Minute 2
  0;                                      !- Value Until Time 2

OS:Schedule:Day,
  {5039db12-a9a6-4b8a-9572-311ab17dc253}, !- Handle
  Medium Office Lighting Winter Design Day Schedule, !- Name
  ,                                       !- Schedule Type Limits Name
  ,                                       !- Interpolate to Timestep
  24,                                     !- Hour 1
  0,                                      !- Minute 1
  0;                                      !- Value Until Time 1

OS:Schedule:Day,
  {c6c0bd55-44f4-4189-9394-5f8437dc002a}, !- Handle
  Medium Office Lighting Winter Design Day Schedule 1, !- Name
  {f8d754d9-87bb-47ee-8f06-093fb822c2ac}, !- Schedule Type Limits Name
  ,                                       !- Interpolate to Timestep
  24,                                     !- Hour 1
  0,                                      !- Minute 1
  0;                                      !- Value Until Time 1

OS:Schedule:Rule,
  {a17659b8-6071-461d-b7f9-1b61bb802881}, !- Handle
  Medium Office Lighting Schedule Weekdays Rule, !- Name
  {971521a8-fc8c-4956-985f-dcb29ab99091}, !- Schedule Ruleset Name
  1,                                      !- Rule Order
  {cc536d4f-e2db-4b0a-847d-12951a0339f5}, !- Day Schedule Name
  ,                                       !- Apply Sunday
  Yes,                                    !- Apply Monday
  Yes,                                    !- Apply Tuesday
  Yes,                                    !- Apply Wednesday
  Yes,                                    !- Apply Thursday
  Yes;                                    !- Apply Friday

OS:Schedule:Day,
  {cc536d4f-e2db-4b0a-847d-12951a0339f5}, !- Handle
  Medium Office Lighting Weekdays Schedule, !- Name
  {f8d754d9-87bb-47ee-8f06-093fb822c2ac}, !- Schedule Type Limits Name
  ,                                       !- Interpolate to Timestep
  5,                                      !- Hour 1
  0,                                      !- Minute 1
  0.05,                                   !- Value Until Time 1
  7,                                      !- Hour 2
  0,                                      !- Minute 2
  0.1,                                    !- Value Until Time 2
  8,                                      !- Hour 3
  0,                                      !- Minute 3
  0.3,                                    !- Value Until Time 3
  17,                                     !- Hour 4
  0,                                      !- Minute 4
  0.9,                                    !- Value Until Time 4
  18,                                     !- Hour 5
  0,                                      !- Minute 5
  0.7,                                    !- Value Until Time 5
  20,                                     !- Hour 6
  0,                                      !- Minute 6
  0.5,                                    !- Value Until Time 6
  22,                                     !- Hour 7
  0,                                      !- Minute 7
  0.3,                                    !- Value Until Time 7
  23,                                     !- Hour 8
  0,                                      !- Minute 8
  0.1,                                    !- Value Until Time 8
  24,                                     !- Hour 9
  0,                                      !- Minute 9
  0.05;                                   !- Value Until Time 9

OS:Schedule:Rule,
  {41c50a6c-8a74-4e71-9205-52477186f171}, !- Handle
  Medium Office Lighting Schedule Saturday Rule, !- Name
  {971521a8-fc8c-4956-985f-dcb29ab99091}, !- Schedule Ruleset Name
  0,                                      !- Rule Order
  {d41fc513-1e53-4cde-8637-af6cfcc6feda}, !- Day Schedule Name
  ,                                       !- Apply Sunday
  ,                                       !- Apply Monday
  ,                                       !- Apply Tuesday
  ,                                       !- Apply Wednesday
  ,                                       !- Apply Thursday
  ,                                       !- Apply Friday
  Yes;                                    !- Apply Saturday

OS:Schedule:Day,
  {d41fc513-1e53-4cde-8637-af6cfcc6feda}, !- Handle
  Medium Office Lighting Saturday Schedule, !- Name
  {f8d754d9-87bb-47ee-8f06-093fb822c2ac}, !- Schedule Type Limits Name
  ,                                       !- Interpolate to Timestep
  6,                                      !- Hour 1
  0,                                      !- Minute 1
  0.05,                                   !- Value Until Time 1
  8,                                      !- Hour 2
  0,                                      !- Minute 2
  0.1,                                    !- Value Until Time 2
  14,                                     !- Hour 3
  0,                                      !- Minute 3
  0.5,                                    !- Value Until Time 3
  17,                                     !- Hour 4
  0,                                      !- Minute 4
  0.15,                                   !- Value Until Time 4
  24,                                     !- Hour 5
  0,                                      !- Minute 5
  0.05;                                   !- Value Until Time 5

OS:Schedule:Ruleset,
  {e53c78d9-9bad-4903-877a-2f1adbf50a7c}, !- Handle
  Medium Office Electric Equipment Schedule, !- Name
  {f8d754d9-87bb-47ee-8f06-093fb822c2ac}, !- Schedule Type Limits Name
  {9b21addc-3a37-4103-bd8f-7f6374b1e793}, !- Default Day Schedule Name
  {a389ea7e-1f78-4bce-b814-01d6b7ea23f8}, !- Summer Design Day Schedule Name
  {91e7daa2-8551-4087-8006-b8edf7e46c5b}; !- Winter Design Day Schedule Name

OS:Schedule:Day,
  {9b21addc-3a37-4103-bd8f-7f6374b1e793}, !- Handle
  Medium Office Electric Equipment All Other Days Schedule, !- Name
  {f8d754d9-87bb-47ee-8f06-093fb822c2ac}, !- Schedule Type Limits Name
  ,                                       !- Interpolate to Timestep
  24,                                     !- Hour 1
  0,                                      !- Minute 1
  0.3;                                    !- Value Until Time 1

OS:Schedule:Day,
  {97925825-bc8d-43d8-abaa-09079f3d5780}, !- Handle
  Medium Office Electric Equipment Summer Design Day Schedule, !- Name
  ,                                       !- Schedule Type Limits Name
  ,                                       !- Interpolate to Timestep
  6,                                      !- Hour 1
  0,                                      !- Minute 1
  1,                                      !- Value Until Time 1
  24,                                     !- Hour 2
  0,                                      !- Minute 2
  0;                                      !- Value Until Time 2

OS:Schedule:Day,
  {a389ea7e-1f78-4bce-b814-01d6b7ea23f8}, !- Handle
  Medium Office Electric Equipment Summer Design Day Schedule 1, !- Name
  {f8d754d9-87bb-47ee-8f06-093fb822c2ac}, !- Schedule Type Limits Name
  ,                                       !- Interpolate to Timestep
  6,                                      !- Hour 1
  0,                                      !- Minute 1
  1,                                      !- Value Until Time 1
  24,                                     !- Hour 2
  0,                                      !- Minute 2
  0;                                      !- Value Until Time 2

OS:Schedule:Day,
  {5d79cd3f-ed32-4732-8f9f-c4373cfac1f3}, !- Handle
  Medium Office Electric Equipment Winter Design Day Schedule, !- Name
  ,                                       !- Schedule Type Limits Name
  ,                                       !- Interpolate to Timestep
  24,                                     !- Hour 1
  0,                                      !- Minute 1
  0;                                      !- Value Until Time 1

OS:Schedule:Day,
  {91e7daa2-8551-4087-8006-b8edf7e46c5b}, !- Handle
  Medium Office Electric Equipment Winter Design Day Schedule 1, !- Name
  {f8d754d9-87bb-47ee-8f06-093fb822c2ac}, !- Schedule Type Limits Name
  ,                                       !- Interpolate to Timestep
  24,                                     !- Hour 1
  0,                                      !- Minute 1
  0;                                      !- Value Until Time 1

OS:Schedule:Rule,
  {ea1b9372-ecd4-441b-8f43-22ac4f657fdd}, !- Handle
  Medium Office Electric Equipment Schedule Weekdays Rule, !- Name
  {e53c78d9-9bad-4903-877a-2f1adbf50a7c}, !- Schedule Ruleset Name
  1,                                      !- Rule Order
  {0233da8b-d301-4c36-ae27-c6d493ff2777}, !- Day Schedule Name
  ,                                       !- Apply Sunday
  Yes,                                    !- Apply Monday
  Yes,                                    !- Apply Tuesday
  Yes,                                    !- Apply Wednesday
  Yes,                                    !- Apply Thursday
  Yes;                                    !- Apply Friday

OS:Schedule:Day,
  {0233da8b-d301-4c36-ae27-c6d493ff2777}, !- Handle
  Medium Office Electric Equipment Weekdays Schedule, !- Name
  {f8d754d9-87bb-47ee-8f06-093fb822c2ac}, !- Schedule Type Limits Name
  ,                                       !- Interpolate to Timestep
  8,                                      !- Hour 1
  0,                                      !- Minute 1
  0.4,                                    !- Value Until Time 1
  12,                                     !- Hour 2
  0,                                      !- Minute 2
  0.9,                                    !- Value Until Time 2
  13,                                     !- Hour 3
  0,                                      !- Minute 3
  0.8,                                    !- Value Until Time 3
  17,                                     !- Hour 4
  0,                                      !- Minute 4
  0.9,                                    !- Value Until Time 4
  18,                                     !- Hour 5
  0,                                      !- Minute 5
  0.8,                                    !- Value Until Time 5
  20,                                     !- Hour 6