
OS:Version,
  {2d6cc8ab-2eed-4735-917a-929c21956250}, !- Handle
  1.4.1;                                  !- Version Identifier

OS:Schedule:Constant,
  {9f54092d-a4a8-41b8-a381-c4c332ecb843}, !- Handle
  Always On Discrete 1,                   !- Name
  {0d28348a-6700-450f-9304-2196e445dc49}, !- Schedule Type Limits Name
  1;                                      !- Value

OS:ScheduleTypeLimits,
  {0d28348a-6700-450f-9304-2196e445dc49}, !- Handle
  Schedule Type Limits 1,                 !- Name
  0,                                      !- Lower Limit Value {BasedOnField A4}
  1,                                      !- Upper Limit Value {BasedOnField A4}
  Discrete,                               !- Numeric Type
  Availability;                           !- Unit Type

OS:ScheduleTypeLimits,
  {0aa7bb86-b420-45ab-9bde-8e8a1cb6966c}, !- Handle
  Temperature,                            !- Name
  ,                                       !- Lower Limit Value {BasedOnField A4}
  ,                                       !- Upper Limit Value {BasedOnField A4}
  Continuous,                             !- Numeric Type
  Temperature;                            !- Unit Type

OS:Schedule:Ruleset,
  {7b9a6d38-fb98-4fb3-a65f-3acd22246ad5}, ! Handle
  Deck Temperature,                       ! Name
  {0aa7bb86-b420-45ab-9bde-8e8a1cb6966c}, ! Schedule Type Limits Name
  {95b90024-04b9-42bd-bb61-cf49cd53075a}, ! Default Day Schedule Name
  {82d14405-5ef1-4ba9-964e-5eeda4406377}, ! Summer Design Day Schedule Name
  {95c78f52-da30-4a0d-89e9-0555bc997738}; ! Winter Design Day Schedule Name

OS:Schedule:Day,
  {95b90024-04b9-42bd-bb61-cf49cd53075a}, ! Handle
  Deck Temperature Default,               ! Name
  {0aa7bb86-b420-45ab-9bde-8e8a1cb6966c}, ! Schedule Type Limits Name
  ,                                       ! Interpolate to Timestep
  24,                                     ! Hour 1
  0,                                      ! Minute 1
  12.8;                                   ! Value Until Time 1

OS:Schedule:Day,
  {82d14405-5ef1-4ba9-964e-5eeda4406377}, ! Handle
  Deck Temperature Summer Design Day,     ! Name
  {0aa7bb86-b420-45ab-9bde-8e8a1cb6966c}, ! Schedule Type Limits Name
  ,                                       ! Interpolate to Timestep
  24,                                     ! Hour 1
  0,                                      ! Minute 1
  12.8;                                   ! Value Until Time 1

OS:Schedule:Day,
  {95c78f52-da30-4a0d-89e9-0555bc997738}, ! Handle
  Deck Temperature Winter Design Day,     ! Name
  {0aa7bb86-b420-45ab-9bde-8e8a1cb6966c}, ! Schedule Type Limits Name
  ,                                       ! Interpolate to Timestep
  24,                                     ! Hour 1
  0,                                      ! Minute 1
  12.8;                                   ! Value Until Time 1

OS:Schedule:Ruleset,
  {79d1a727-7423-4a1b-a207-ba52d7b79585}, ! Handle
  Hot Water Temperature,                  ! Name
  {0aa7bb86-b420-45ab-9bde-8e8a1cb6966c}, ! Schedule Type Limits Name
  {6c00760d-609c-47a8-8712-9d3bab3b8988}, ! Default Day Schedule Name
  {b631e7a3-37a8-41e5-8135-9b04110f3595}, ! Summer Design Day Schedule Name
  {f68485a1-707c-47b6-9d74-c28290a31dd0}; ! Winter Design Day Schedule Name

OS:Schedule:Day,
  {6c00760d-609c-47a8-8712-9d3bab3b8988}, ! Handle
  Hot Water Temperature Default,          ! Name
  {0aa7bb86-b420-45ab-9bde-8e8a1cb6966c}, ! Schedule Type Limits Name
  ,                                       ! Interpolate to Timestep
  24,                                     ! Hour 1
  0,                                      ! Minute 1
  67;                                     ! Value Until Time 1

OS:Schedule:Day,
  {b631e7a3-37a8-41e5-8135-9b04110f3595}, ! Handle
  Hot Water Temperature Summer Design Day, ! Name
  {0aa7bb86-b420-45ab-9bde-8e8a1cb6966c}, ! Schedule Type Limits Name
  ,                                       ! Interpolate to Timestep
  24,                                     ! Hour 1
  0,                                      ! Minute 1
  67;                                     ! Value Until Time 1

OS:Schedule:Day,
  {f68485a1-707c-47b6-9d74-c28290a31dd0}, ! Handle
  Hot Water Temperature Winter Design Day, ! Name
  {0aa7bb86-b420-45ab-9bde-8e8a1cb6966c}, ! Schedule Type Limits Name
  ,                                       ! Interpolate to Timestep
  24,                                     ! Hour 1
  0,                                      ! Minute 1
  67;                                     ! Value Until Time 1

OS:Schedule:Ruleset,
  {65a1b0a1-d443-4036-bf41-434dd40cfc03}, ! Handle
  Chilled Water Temperature,              ! Name
  {0aa7bb86-b420-45ab-9bde-8e8a1cb6966c}, ! Schedule Type Limits Name
  {5ed7a3e4-5e4a-4764-b5f5-4e86b859896a}, ! Default Day Schedule Name
  {fb0171b5-e5d5-4644-a2f3-dace8526fb8d}, ! Summer Design Day Schedule Name
  {60c11249-2bc8-40f9-ad01-f25308df3870}; ! Winter Design Day Schedule Name

OS:Schedule:Day,
  {5ed7a3e4-5e4a-4764-b5f5-4e86b859896a}, ! Handle
  Chilled Water Temperature Default,      ! Name
  {0aa7bb86-b420-45ab-9bde-8e8a1cb6966c}, ! Schedule Type Limits Name
  ,                                       ! Interpolate to Timestep
  24,                                     ! Hour 1
  0,                                      ! Minute 1
  6.7;                                    ! Value Until Time 1

OS:Schedule:Day,
  {fb0171b5-e5d5-4644-a2f3-dace8526fb8d}, ! Handle
  Chilled Water Temperature Summer Design Day, ! Name
  {0aa7bb86-b420-45ab-9bde-8e8a1cb6966c}, ! Schedule Type Limits Name
  ,                                       ! Interpolate to Timestep
  24,                                     ! Hour 1
  0,                                      ! Minute 1
  6.7;                                    ! Value Until Time 1

OS:Schedule:Day,
  {60c11249-2bc8-40f9-ad01-f25308df3870}, ! Handle
  Chilled Water Temperature Winter Design Day, ! Name
  {0aa7bb86-b420-45ab-9bde-8e8a1cb6966c}, ! Schedule Type Limits Name
  ,                                       ! Interpolate to Timestep
  24,                                     ! Hour 1
  0,                                      ! Minute 1
  6.7;                                    ! Value Until Time 1

OS:Schedule:Ruleset,
  {cc53a423-3dc6-47ad-90d5-0154db8eccc8}, ! Handle
  Water Heater Ambient Temperature,       ! Name
  {0aa7bb86-b420-45ab-9bde-8e8a1cb6966c}, ! Schedule Type Limits Name
  {7eb2848e-01e0-426d-aafa-66f3edbc9660}; ! Default Day Schedule Name

OS:Schedule:Day,
  {7eb2848e-01e0-426d-aafa-66f3edbc9660}, ! Handle
  Water Heater Ambient Temperature Default, ! Name
  {0aa7bb86-b420-45ab-9bde-8e8a1cb6966c}, ! Schedule Type Limits Name
  ,                                       ! Interpolate to Timestep
  24,                                     ! Hour 1
  0,                                      ! Minute 1
  22;                                     ! Value Until Time 1

OS:Schedule:Ruleset,
  {c13bffd8-644e-4f69-871f-7dcafa493644}, ! Handle
  Water Heater Setpoint Temperature,      ! Name
  {0aa7bb86-b420-45ab-9bde-8e8a1cb6966c}, ! Schedule Type Limits Name
  {97b084f4-4eda-4f4b-a7c9-ef8eb8825fdb}; ! Default Day Schedule Name

OS:Schedule:Day,
  {97b084f4-4eda-4f4b-a7c9-ef8eb8825fdb}, ! Handle
  Water Heater Setpoint Temperature Default, ! Name
  {0aa7bb86-b420-45ab-9bde-8e8a1cb6966c}, ! Schedule Type Limits Name
  ,                                       ! Interpolate to Timestep
  24,                                     ! Hour 1
  0,                                      ! Minute 1
  60;                                     ! Value Until Time 1

OS:SetpointManager:FollowOutdoorAirTemperature,
  {66411916-74d9-491e-8fdd-63249f651c0e}, ! Handle
  Follow Outdoor Air Temperature,         ! Name
  Temperature,                            ! Control Variable
  OutdoorAirWetBulb,                      ! Reference Temperature Type
  0,                                      ! Offset Temperature Difference {deltaC}
  80,                                     ! Maximum Setpoint Temperature {C}
  5,                                      ! Minimum Setpoint Temperature {C}
  ;                                       ! Setpoint Node or NodeList Name

OS:SetpointManager:OutdoorAirReset,
  {6150d904-49c8-4db7-a235-001a6bfccac0}, !- Handle
  Setpoint Manager Outdoor Air Reset,     !- Name
  Temperature,                            !- Control Variable
  22,                                     !- Setpoint at Outdoor Low Temperature {C}
  10,                                     !- Outdoor Low Temperature {C}
  10,                                     !- Setpoint at Outdoor High Temperature {C}
  24,                                     !- Outdoor High Temperature {C}
  ,                                       !- Setpoint Node or NodeList Name
  ,                                       !- Schedule Name
  ,                                       !- Setpoint at Outdoor Low Temperature 2 {C}
  ,                                       !- Outdoor Low Temperature 2 {C}
  ,                                       !- Setpoint at Outdoor High Temperature 2 {C}
  ;                                       !- Outdoor High Temperature 2 {C}

OS:SetpointManager:Scheduled,
  {2820afd7-ae39-48d4-80e9-beed1a4d2e00}, ! Handle
  Deck Temp SPM,                          ! Name
  Temperature,                            ! Control Variable
  {7b9a6d38-fb98-4fb3-a65f-3acd22246ad5}, ! Schedule Name
  ;                                       ! Setpoint Node or NodeList Name

OS:SetpointManager:Scheduled,
  {2e8f0105-051f-4848-93fd-665d90864f10}, ! Handle
  Hot Water SPM,                          ! Name
  Temperature,                            ! Control Variable
  {79d1a727-7423-4a1b-a207-ba52d7b79585}, ! Schedule Name
  ;                                       ! Setpoint Node or NodeList Name

OS:SetpointManager:Scheduled,
  {258adc08-0f5c-4590-9dda-8e4997f4afcd}, ! Handle
  Chilled Water SPM,                      ! Name
  Temperature,                            ! Control Variable
  {65a1b0a1-d443-4036-bf41-434dd40cfc03}, ! Schedule Name
  ;                                       ! Setpoint Node or NodeList Name

OS:SetpointManager:MixedAir,
  {b27ac206-d7fc-4ada-aacc-4806c3f43a7b}, ! Handle
  OS:SetpointManager:MixedAir 1,          ! Name
  Temperature,                            ! Control Variable
  ,                                       ! Reference Setpoint Node Name
  ,                                       ! Fan Inlet Node Name
  ,                                       ! Fan Outlet Node Name
  ;                                       ! Setpoint Node or NodeList Name

OS:SetpointManager:SingleZone:Reheat,
  {52b29f2b-e01f-47bf-bbe4-620a2322df12}, ! Handle
  OS:SetpointManager:SingleZone:Reheat 1, ! Name
  -99,                                    ! Minimum Supply Air Temperature {C}
  99,                                     ! Maximum Supply Air Temperature {C}
  ,                                       ! Control Zone Name
  ,                                       ! Setpoint Node or NodeList Name
  Temperature;                            ! Control Variable

OS:SetpointManager:Warmest,
  {4f12e925-01e9-4ce2-9f56-daa5d024ac5d}, !- Handle
  Setpoint Manager Warmest,               !- Name
  Temperature,                            !- Control Variable
  12.2,                                   !- Minimum Setpoint Temperature {C}
  15.6,                                   !- Maximum Setpoint Temperature {C}
  MaximumTemperature,                     !- Strategy
  ;                                       !- Setpoint Node or NodeList Name

OS:SetpointManager:Scheduled:DualSetpoint,
  {9eae8047-b0c4-46a9-a37a-30889c83b4ae}, !- Handle
  Dual Setpoint, !- Name
  Temperature,                                       !- Control Variable
  {7aec1e64-640d-4bb1-ba20-f89f7e911d11}, !- High Setpoint Schedule Name
  {3515ff9e-912f-4d2e-bf1f-163a63d2662b}, !- Low Setpoint Schedule Name
  ;                                       !- Setpoint Node or NodeList Name

OS:Schedule:Ruleset,
  {7aec1e64-640d-4bb1-ba20-f89f7e911d11}, !- Handle
  Dual SP High Schedule,                     !- Name
  {919bbba6-e6ba-472c-968a-3444cb36c6e6}, !- Schedule Type Limits Name
  {47fec27d-6610-4f32-94f3-860c2949a1d8}; !- Default Day Schedule Name

OS:Schedule:Day,
  {47fec27d-6610-4f32-94f3-860c2949a1d8}, !- Handle
  Dual SP High Day,                         !- Name
  {919bbba6-e6ba-472c-968a-3444cb36c6e6}, !- Schedule Type Limits Name
  ,                                       !- Interpolate to Timestep
  24,                                     !- Hour 1
  0,                                      !- Minute 1
  26.7;                                   !- Value Until Time 1

OS:Schedule:Ruleset,
  {3515ff9e-912f-4d2e-bf1f-163a63d2662b}, !- Handle
  Dual SP Low Schedule,                     !- Name
  {554ee901-8dc9-456e-884a-409b5b97127b}, !- Schedule Type Limits Name
  {2e127e60-a413-4470-9836-838e2468abe2}; !- Default Day Schedule Name

OS:Schedule:Day,
  {2e127e60-a413-4470-9836-838e2468abe2}, !- Handle
  Dual SP Low Day,                         !- Name
  {554ee901-8dc9-456e-884a-409b5b97127b}, !- Schedule Type Limits Name
  ,                                       !- Interpolate to Timestep
  24,                                     !- Hour 1
  0,                                      !- Minute 1
  10;                                     !- Value Until Time 1

OS:ScheduleTypeLimits,
  {919bbba6-e6ba-472c-968a-3444cb36c6e6}, !- Handle
  Dual SP High Limits,                            !- Name
  ,                                       !- Lower Limit Value {BasedOnField A4}
  ,                                       !- Upper Limit Value {BasedOnField A4}
  Continuous,                             !- Numeric Type
  Temperature;                            !- Unit Type

OS:ScheduleTypeLimits,
  {554ee901-8dc9-456e-884a-409b5b97127b}, !- Handle
  Dual SP Low Limits,                          !- Name
  ,                                       !- Lower Limit Value {BasedOnField A4}
  ,                                       !- Upper Limit Value {BasedOnField A4}
  Continuous,                             !- Numeric Type
  Temperature;                            !- Unit Type

OS:SetpointManager:OutdoorAirPretreat,
  {e10c0dd1-1387-4356-a5c4-34671a43d30f}, !- Handle
  OA Pretreat, !- Name
  Temperature,                                       !- Control Variable
  ,                                       !- Minimum Setpoint Temperature {C}
  ,                                       !- Maximum Setpoint Temperature {C}
  ,                                       !- Minimum Setpoint Humidity Ratio {kgWater/kgDryAir}
  ,                                       !- Maximum Setpoint Humidity Ratio {kgWater/kgDryAir}
  ,                                       !- Reference Setpoint Node Name
  ,                                       !- Mixed Air Stream Node Name
  ,                                       !- Outdoor Air Stream Node Name
  ,                                       !- Return Air Stream Node Name
  ;                                       !- Setpoint Node or NodeList Name

OS:Fan:ConstantVolume,
  {c15ef75a-56db-4ec3-9720-d06294deabcc}, ! Handle
  Constant Speed Fan,                     ! Name
  {9f54092d-a4a8-41b8-a381-c4c332ecb843}, ! Availability Schedule Name
  ,                                       ! Fan Efficiency
  ,                                       ! Pressure Rise {Pa}
  AutoSize,                               ! Maximum Flow Rate {m3/s}
  ,                                       ! Motor Efficiency
  ,                                       ! Motor In Airstream Fraction
  ,                                       ! Air Inlet Node Name
  ,                                       ! Air Outlet Node Name
  ;                                       ! End-Use Subcategory

OS:Fan:VariableVolume,
  {ade4771b-26f4-404b-9a94-07c5fee085ca}, ! Handle
  Variable Speed Fan,                     ! Name
  {9f54092d-a4a8-41b8-a381-c4c332ecb843}, ! Availability Schedule Name
  0.60450000000000004,                    ! Fan Efficiency
  1017.592,                               ! Pressure Rise {Pa}
  Autosize,                               ! Maximum Flow Rate {m3/s}
  FixedFlowRate,                          ! Fan Power Minimum Flow Rate Input Method
  0,                                      ! Fan Power Minimum Flow Fraction
  0,                                      ! Fan Power Minimum Air Flow Rate {m3/s}
  0.93000000000000005,                    ! Motor Efficiency
  1,                                      ! Motor In Airstream Fraction
  0.040759893999999998,                   ! Fan Power Coefficient 1
  0.08804497,                             ! Fan Power Coefficient 2
  -0.072926119999999997,                  ! Fan Power Coefficient 3
  0.94373982300000003,                    ! Fan Power Coefficient 4
  0,                                      ! Fan Power Coefficient 5
  ,                                       ! Air Inlet Node Name
  ,                                       ! Air Outlet Node Name
  ;                                       ! End-Use Subcategory

OS:Coil:Heating:Gas,
  {e5360a5e-82a4-4772-96b8-a55c6d871995}, ! Handle
  OS:Coil:Heating:Gas 1,                  ! Name
  {9f54092d-a4a8-41b8-a381-c4c332ecb843}, ! Availability Schedule Name
  0.80000000000000004,                    ! Gas Burner Efficiency
  AutoSize,                               ! Nominal Capacity {W}
  ,                                       ! Air Inlet Node Name
  ,                                       ! Air Outlet Node Name
  ,                                       ! Temperature Setpoint Node Name
  0,                                      ! Parasitic Electric Load {W}
  ,                                       ! Part Load Fraction Correlation Curve Name
  0;                                      ! Parasitic Gas Load {W}

OS:Coil:Heating:Electric,
  {c5aca90c-39a5-4144-b4a5-4cbdc860c65e}, ! Handle
  OS:Coil:Heating:Electric 1,             ! Name
  {9f54092d-a4a8-41b8-a381-c4c332ecb843}, ! Availability Schedule Name
  ,                                       ! Efficiency
  ,                                       ! Nominal Capacity {W}
  ,                                       ! Air Inlet Node Name
  ;                                       ! Air Outlet Node Name

OS:Coil:Cooling:DX:SingleSpeed,
  {2323aae7-f591-444f-9ed4-ff6eb640f190}, ! Handle
  OS:Coil:Cooling:DX:SingleSpeed 1,       ! Name
  {9f54092d-a4a8-41b8-a381-c4c332ecb843}, ! Availability Schedule Name
  Autosize,                               ! Rated Total Cooling Capacity {W}
  Autosize,                               ! Rated Sensible Heat Ratio
  3,                                      ! Rated COP {W/W}
  Autosize,                               ! Rated Air Flow Rate {m3/s}
  773.29999999999995,                     ! Rated Evaporator Fan Power Per Volume Flow Rate {W/(m3/s)}
  ,                                       ! Air Inlet Node Name
  ,                                       ! Air Outlet Node Name
  {43241c62-f9aa-470c-877b-aed134698156}, ! Total Cooling Capacity Function of Temperature Curve Name
  {94e3e298-d691-470d-ac68-e0271ae32bb2}, ! Total Cooling Capacity Function of Flow Fraction Curve Name
  {8a71bbe5-637a-4261-8c9e-10d02300a49a}, ! Energy Input Ratio Function of Temperature Curve Name
  {10a62043-5331-4374-a44c-8c540d3c6983}, ! Energy Input Ratio Function of Flow Fraction Curve Name
  {01338ac0-de4d-4703-8c69-18d51edd0927}, ! Part Load Fraction Correlation Curve Name
  ,                                       ! Nominal Time for Condensate Removal to Begin {s}
  ,                                       ! Ratio of Initial Moisture Evaporation Rate and Steady State Latent Capacity {dimensionless}
  ,                                       ! Maximum Cycling Rate {cycles/hr}
  ,                                       ! Latent Capacity Time Constant {s}
  ,                                       ! Condenser Air Inlet Node Name
  AirCooled,                              ! Condenser Type
  0,                                      ! Evaporative Condenser Effectiveness {dimensionless}
  Autosize,                               ! Evaporative Condenser Air Flow Rate {m3/s}
  Autosize,                               ! Evaporative Condenser Pump Rated Power Consumption {W}
  0,                                      ! Crankcase Heater Capacity {W}
  0,                                      ! Maximum Outdoor Dry-Bulb Temperature for Crankcase Heater Operation {C}
  ,                                       ! Supply Water Storage Tank Name
  ,                                       ! Condensate Collection Water Storage Tank Name
  0,                                      ! Basin Heater Capacity {W/K}
  10,                                     ! Basin Heater Setpoint Temperature {C}
  ;                                       ! Basin Heater Operating Schedule Name

OS:CoolingTower:SingleSpeed,
  {c555c629-0c49-4248-9bd1-a04e0cf9e2d1}, ! Handle
  OS:CoolingTower:SingleSpeed 1,          ! Name
  ,                                       ! Water Inlet Node Name
  ,                                       ! Water Outlet Node Name
  Autosize,                               ! Design Water Flow Rate {m3/s}
  Autosize,                               ! Design Air Flow Rate {m3/s}
  Autosize,                               ! Fan Power at Design Air Flow Rate {W}
  Autosize,                               ! U-Factor Times Area Value at Design Air Flow Rate {W/K}
  Autosize,                               ! Air Flow Rate in Free Convection Regime {m3/s}
  Autosize;                               ! U-Factor Times Area Value at Free Convection Air Flow Rate {W/K}

OS:Curve:Biquadratic,
  {43241c62-f9aa-470c-877b-aed134698156}, ! Handle
  OS:Curve:Biquadratic 1,                 ! Name
  0.42415000000000003,                    ! Coefficient1 Constant
  0.044260000000000001,                   ! Coefficient2 x
  -0.00042000000000000002,                ! Coefficient3 x**2
  0.0033300000000000001,                  ! Coefficient4 y
  -8.0000000000000007e-05,                ! Coefficient5 y**2
  -0.00021000000000000001,                ! Coefficient6 x*y
  17,                                     ! Minimum Value of x {BasedOnField A2}
  22,                                     ! Maximum Value of x {BasedOnField A2}
  13,                                     ! Minimum Value of y {BasedOnField A3}
  46;                                     ! Maximum Value of y {BasedOnField A3}

OS:Curve:Quadratic,
  {94e3e298-d691-470d-ac68-e0271ae32bb2}, ! Handle
  OS:Curve:Quadratic 1,                   ! Name
  0.77136000000000005,                    ! Coefficient1 Constant
  0.34053,                                ! Coefficient2 x
  -0.11088000000000001,                   ! Coefficient3 x**2
  0.75917999999999997,                    ! Minimum Value of x {BasedOnField A2}
  1.1387700000000001;                     ! Maximum Value of x {BasedOnField A2}

OS:Curve:Biquadratic,
  {8a71bbe5-637a-4261-8c9e-10d02300a49a}, ! Handle
  OS:Curve:Biquadratic 2,                 ! Name
  1.2364900000000001,                     ! Coefficient1 Constant
  -0.024309999999999998,                  ! Coefficient2 x
  0.00056999999999999998,                 ! Coefficient3 x**2
  -0.01434,                               ! Coefficient4 y
  0.00063000000000000003,                 ! Coefficient5 y**2
  -0.00038000000000000002,                ! Coefficient6 x*y
  17,                                     ! Minimum Value of x {BasedOnField A2}
  22,                                     ! Maximum Value of x {BasedOnField A2}
  13,                                     ! Minimum Value of y {BasedOnField A3}
  46;                                     ! Maximum Value of y {BasedOnField A3}

OS:Curve:Quadratic,
  {10a62043-5331-4374-a44c-8c540d3c6983}, ! Handle
  OS:Curve:Quadratic 2,                   ! Name
  1.2055,                                 ! Coefficient1 Constant
  -0.32952999999999999,                   ! Coefficient2 x
  0.12307999999999999,                    ! Coefficient3 x**2
  0.75917999999999997,                    ! Minimum Value of x {BasedOnField A2}
  1.1387700000000001;                     ! Maximum Value of x {BasedOnField A2}

OS:Curve:Quadratic,
  {01338ac0-de4d-4703-8c69-18d51edd0927}, ! Handle
  OS:Curve:Quadratic 3,                   ! Name
  0.77100000000000002,                    ! Coefficient1 Constant
  0.22900000000000001,                    ! Coefficient2 x
  0,                                      ! Coefficient3 x**2
  0,                                      ! Minimum Value of x {BasedOnField A2}
  1;                                      ! Maximum Value of x {BasedOnField A2}

OS:EvaporativeCooler:Direct:ResearchSpecial,
  {8d3b17e0-88c9-4d17-9de4-0b9dd0481b36}, ! Handle
  OS:EvaporativeCooler:Direct:ResearchSpecial, ! Name
  {9f54092d-a4a8-41b8-a381-c4c332ecb843}, ! Availability Schedule Name
  1,                                      !- Cooler Effectiveness
  0,                                      !- Recirculating Water Pump Power Consumption {W}
  ,                                       !- Air Inlet Node Name
  ,                                       !- Air Outlet Node Name
  ,                                       !- Sensor Node Name
  0,                                      !- Drift Loss Fraction
  0;                                      !- Blowdown Concentration Ratio

OS:AirTerminal:SingleDuct:ConstantVolume:Reheat,
  {36193791-ae10-4f59-90dc-2bc06cf598d2}, !- Handle
  AirTerminal CAV With Electric Reheat,   !- Name
  {9f54092d-a4a8-41b8-a381-c4c332ecb843}, !- Availability Schedule Name
  ,                                       !- Air Outlet Node Name
  ,                                       !- Air Inlet Node Name
  autosize,                               !- Maximum Air Flow Rate {m3/s}
  {49bb683c-774e-43f1-b346-cecc2a17abcf}, !- Reheat Coil Name
  autosize,                               !- Maximum Hot Water or Steam Flow Rate {m3/s}
  0,                                      !- Minimum Hot Water or Steam Flow Rate {m3/s}
  0.001,                                  !- Convergence Tolerance
  35;                                     !- Maximum Reheat Air Temperature {C}

OS:Coil:Heating:Electric,
  {49bb683c-774e-43f1-b346-cecc2a17abcf}, !- Handle
  AirTerminal CAV Coil Heating Electric,  !- Name
  {9f54092d-a4a8-41b8-a381-c4c332ecb843}, !- Availability Schedule Name
  ,                                       !- Efficiency
  ,                                       !- Nominal Capacity {W}
  ,                                       !- Air Inlet Node Name
  ;                                       !- Air Outlet Node Name

OS:AirTerminal:SingleDuct:ConstantVolume:Reheat,
  {ddebc341-dda2-4ce9-b273-e5c04d43dd3b}, !- Handle
  AirTerminal CAV With Gas Reheat,        !- Name
  {9f54092d-a4a8-41b8-a381-c4c332ecb843}, !- Availability Schedule Name
  ,                                       !- Air Outlet Node Name
  ,                                       !- Air Inlet Node Name
  autosize,                               !- Maximum Air Flow Rate {m3/s}
  {b31fd95d-d7a3-4acc-9f00-fa5fc59ac08a}, !- Reheat Coil Name
  autosize,                               !- Maximum Hot Water or Steam Flow Rate {m3/s}
  0,                                      !- Minimum Hot Water or Steam Flow Rate {m3/s}
  0.001,                                  !- Convergence Tolerance
  35;                                     !- Maximum Reheat Air Temperature {C}

OS:Coil:Heating:Gas,
  {b31fd95d-d7a3-4acc-9f00-fa5fc59ac08a}, !- Handle
  AirTerminal CAV Coil Heating Gas,       !- Name
  {9f54092d-a4a8-41b8-a381-c4c332ecb843}, !- Availability Schedule Name
  0.8,                                    !- Gas Burner Efficiency
  AutoSize,                               !- Nominal Capacity {W}
  ,                                       !- Air Inlet Node Name
  ,                                       !- Air Outlet Node Name
  ,                                       !- Temperature Setpoint Node Name
  0,                                      !- Parasitic Electric Load {W}
  ,                                       !- Part Load Fraction Correlation Curve Name
  0;                                      !- Parasitic Gas Load {W}

OS:AirTerminal:SingleDuct:ConstantVolume:Reheat,
  {a713621f-ee1b-4f97-84bb-2cec78fad3ed}, !- Handle
  AirTerminal CAV With Hot Water Reheat,  !- Name
  {9f54092d-a4a8-41b8-a381-c4c332ecb843}, !- Availability Schedule Name
  ,                                       !- Air Outlet Node Name
  ,                                       !- Air Inlet Node Name
  autosize,                               !- Maximum Air Flow Rate {m3/s}
  {512b3639-980e-402f-9767-207776852799}, !- Reheat Coil Name
  autosize,                               !- Maximum Hot Water or Steam Flow Rate {m3/s}
  0,                                      !- Minimum Hot Water or Steam Flow Rate {m3/s}
  0.001,                                  !- Convergence Tolerance
  35;                                     !- Maximum Reheat Air Temperature {C}

OS:Coil:Heating:Water,
  {512b3639-980e-402f-9767-207776852799}, !- Handle
  AirTerminal CAV Coil Heating Water,     !- Name
  {9f54092d-a4a8-41b8-a381-c4c332ecb843}, !- Availability Schedule Name
  ,                                       !- U-Factor Times Area Value {W/K}
  ,                                       !- Maximum Water Flow Rate {m3/s}
  ,                                       !- Water Inlet Node Name
  ,                                       !- Water Outlet Node Name
  ,                                       !- Air Inlet Node Name
  ,                                       !- Air Outlet Node Name
  ,                                       !- Performance Input Method
  ,                                       !- Rated Capacity {W}
  ,                                       !- Rated Inlet Water Temperature {C}