
OS:Version,
  {de09e553-501b-482c-8f3a-f24d04bcbf5e}, !- Handle
  2.3.0;                                  !- Version Identifier

OS:Schedule:Constant,
  {9f54092d-a4a8-41b8-a381-c4c332ecb843}, !- Handle
  Always On Discrete 1,                   !- Name
  {0d28348a-6700-450f-9304-2196e445dc49}, !- Schedule Type Limits Name
  1;                                      !- Value

OS:ScheduleTypeLimits,
  {0d28348a-6700-450f-9304-2196e445dc49}, !- Handle
  Schedule Type Limits 1,                 !- Name
  0,                                      !- Lower Limit Value
  1,                                      !- Upper Limit Value
  Discrete,                               !- Numeric Type
  Availability;                           !- Unit Type

OS:ScheduleTypeLimits,
  {0aa7bb86-b420-45ab-9bde-8e8a1cb6966c}, !- Handle
  Temperature,                            !- Name
  ,                                       !- Lower Limit Value
  ,                                       !- Upper Limit Value
  Continuous,                             !- Numeric Type
  Temperature;                            !- Unit Type

OS:Schedule:Ruleset,
  {7b9a6d38-fb98-4fb3-a65f-3acd22246ad5}, ! Handle
  Deck Temperature,                       ! Name
  {0aa7bb86-b420-45ab-9bde-8e8a1cb6966c}, ! Schedule Type Limits Name
  {95b90024-04b9-42bd-bb61-cf49cd53075a}, ! Default Day Schedule Name
  {82d14405-5ef1-4ba9-964e-5eeda4406377}, ! Summer Design Day Schedule Name
  {95c78f52-da30-4a0d-89e9-0555bc997738}; ! Winter Design Day Schedule Name

OS:Schedule:Day,
  {95b90024-04b9-42bd-bb61-cf49cd53075a}, ! Handle
  Deck Temperature Default,               ! Name
  {0aa7bb86-b420-45ab-9bde-8e8a1cb6966c}, ! Schedule Type Limits Name
  ,                                       ! Interpolate to Timestep
  24,                                     ! Hour 1
  0,                                      ! Minute 1
  12.8;                                   ! Value Until Time 1

OS:Schedule:Day,
  {82d14405-5ef1-4ba9-964e-5eeda4406377}, ! Handle
  Deck Temperature Summer Design Day,     ! Name
  {0aa7bb86-b420-45ab-9bde-8e8a1cb6966c}, ! Schedule Type Limits Name
  ,                                       ! Interpolate to Timestep
  24,                                     ! Hour 1
  0,                                      ! Minute 1
  12.8;                                   ! Value Until Time 1

OS:Schedule:Day,
  {95c78f52-da30-4a0d-89e9-0555bc997738}, ! Handle
  Deck Temperature Winter Design Day,     ! Name
  {0aa7bb86-b420-45ab-9bde-8e8a1cb6966c}, ! Schedule Type Limits Name
  ,                                       ! Interpolate to Timestep
  24,                                     ! Hour 1
  0,                                      ! Minute 1
  12.8;                                   ! Value Until Time 1

OS:Schedule:Ruleset,
  {79d1a727-7423-4a1b-a207-ba52d7b79585}, ! Handle
  Hot Water Temperature,                  ! Name
  {0aa7bb86-b420-45ab-9bde-8e8a1cb6966c}, ! Schedule Type Limits Name
  {6c00760d-609c-47a8-8712-9d3bab3b8988}, ! Default Day Schedule Name
  {b631e7a3-37a8-41e5-8135-9b04110f3595}, ! Summer Design Day Schedule Name
  {f68485a1-707c-47b6-9d74-c28290a31dd0}; ! Winter Design Day Schedule Name

OS:Schedule:Day,
  {6c00760d-609c-47a8-8712-9d3bab3b8988}, ! Handle
  Hot Water Temperature Default,          ! Name
  {0aa7bb86-b420-45ab-9bde-8e8a1cb6966c}, ! Schedule Type Limits Name
  ,                                       ! Interpolate to Timestep
  24,                                     ! Hour 1
  0,                                      ! Minute 1
  67;                                     ! Value Until Time 1

OS:Schedule:Day,
  {b631e7a3-37a8-41e5-8135-9b04110f3595}, ! Handle
  Hot Water Temperature Summer Design Day, ! Name
  {0aa7bb86-b420-45ab-9bde-8e8a1cb6966c}, ! Schedule Type Limits Name
  ,                                       ! Interpolate to Timestep
  24,                                     ! Hour 1
  0,                                      ! Minute 1
  67;                                     ! Value Until Time 1

OS:Schedule:Day,
  {f68485a1-707c-47b6-9d74-c28290a31dd0}, ! Handle
  Hot Water Temperature Winter Design Day, ! Name
  {0aa7bb86-b420-45ab-9bde-8e8a1cb6966c}, ! Schedule Type Limits Name
  ,                                       ! Interpolate to Timestep
  24,                                     ! Hour 1
  0,                                      ! Minute 1
  67;                                     ! Value Until Time 1

OS:Schedule:Ruleset,
  {65a1b0a1-d443-4036-bf41-434dd40cfc03}, ! Handle
  Chilled Water Temperature,              ! Name
  {0aa7bb86-b420-45ab-9bde-8e8a1cb6966c}, ! Schedule Type Limits Name
  {5ed7a3e4-5e4a-4764-b5f5-4e86b859896a}, ! Default Day Schedule Name
  {fb0171b5-e5d5-4644-a2f3-dace8526fb8d}, ! Summer Design Day Schedule Name
  {60c11249-2bc8-40f9-ad01-f25308df3870}; ! Winter Design Day Schedule Name

OS:Schedule:Day,
  {5ed7a3e4-5e4a-4764-b5f5-4e86b859896a}, ! Handle
  Chilled Water Temperature Default,      ! Name
  {0aa7bb86-b420-45ab-9bde-8e8a1cb6966c}, ! Schedule Type Limits Name
  ,                                       ! Interpolate to Timestep
  24,                                     ! Hour 1
  0,                                      ! Minute 1
  6.7;                                    ! Value Until Time 1

OS:Schedule:Day,
  {fb0171b5-e5d5-4644-a2f3-dace8526fb8d}, ! Handle
  Chilled Water Temperature Summer Design Day, ! Name
  {0aa7bb86-b420-45ab-9bde-8e8a1cb6966c}, ! Schedule Type Limits Name
  ,                                       ! Interpolate to Timestep
  24,                                     ! Hour 1
  0,                                      ! Minute 1
  6.7;                                    ! Value Until Time 1

OS:Schedule:Day,
  {60c11249-2bc8-40f9-ad01-f25308df3870}, ! Handle
  Chilled Water Temperature Winter Design Day, ! Name
  {0aa7bb86-b420-45ab-9bde-8e8a1cb6966c}, ! Schedule Type Limits Name
  ,                                       ! Interpolate to Timestep
  24,                                     ! Hour 1
  0,                                      ! Minute 1
  6.7;                                    ! Value Until Time 1

OS:Schedule:Ruleset,
  {cc53a423-3dc6-47ad-90d5-0154db8eccc8}, ! Handle
  Water Heater Ambient Temperature,       ! Name
  {0aa7bb86-b420-45ab-9bde-8e8a1cb6966c}, ! Schedule Type Limits Name
  {7eb2848e-01e0-426d-aafa-66f3edbc9660}; ! Default Day Schedule Name

OS:Schedule:Day,
  {7eb2848e-01e0-426d-aafa-66f3edbc9660}, ! Handle
  Water Heater Ambient Temperature Default, ! Name
  {0aa7bb86-b420-45ab-9bde-8e8a1cb6966c}, ! Schedule Type Limits Name
  ,                                       ! Interpolate to Timestep
  24,                                     ! Hour 1
  0,                                      ! Minute 1
  22;                                     ! Value Until Time 1

OS:Schedule:Ruleset,
  {c13bffd8-644e-4f69-871f-7dcafa493644}, ! Handle
  Water Heater Setpoint Temperature,      ! Name
  {0aa7bb86-b420-45ab-9bde-8e8a1cb6966c}, ! Schedule Type Limits Name
  {97b084f4-4eda-4f4b-a7c9-ef8eb8825fdb}; ! Default Day Schedule Name

OS:Schedule:Day,
  {97b084f4-4eda-4f4b-a7c9-ef8eb8825fdb}, ! Handle
  Water Heater Setpoint Temperature Default, ! Name
  {0aa7bb86-b420-45ab-9bde-8e8a1cb6966c}, ! Schedule Type Limits Name
  ,                                       ! Interpolate to Timestep
  24,                                     ! Hour 1
  0,                                      ! Minute 1
  60;                                     ! Value Until Time 1

OS:SetpointManager:FollowOutdoorAirTemperature,
  {66411916-74d9-491e-8fdd-63249f651c0e}, ! Handle
  Follow OA Temp,                         ! Name
  Temperature,                            ! Control Variable
  OutdoorAirWetBulb,                      ! Reference Temperature Type
  0,                                      ! Offset Temperature Difference {deltaC}
  80,                                     ! Maximum Setpoint Temperature {C}
  5,                                      ! Minimum Setpoint Temperature {C}
  ;                                       ! Setpoint Node or NodeList Name

OS:SetpointManager:OutdoorAirReset,
  {6150d904-49c8-4db7-a235-001a6bfccac0}, !- Handle
  OA Temp Reset,                          !- Name
  Temperature,                            !- Control Variable
  17,                                     !- Setpoint at Outdoor Low Temperature {C}
  10,                                     !- Outdoor Low Temperature {C}
  13,                                     !- Setpoint at Outdoor High Temperature {C}
  24,                                     !- Outdoor High Temperature {C}
  ,                                       !- Setpoint Node or NodeList Name
  ,                                       !- Schedule Name
  ,                                       !- Setpoint at Outdoor Low Temperature 2 {C}
  ,                                       !- Outdoor Low Temperature 2 {C}
  ,                                       !- Setpoint at Outdoor High Temperature 2 {C}
  ;                                       !- Outdoor High Temperature 2 {C}

OS:SetpointManager:Scheduled,
  {2820afd7-ae39-48d4-80e9-beed1a4d2e00}, ! Handle
  Scheduled Deck Temp,                    ! Name
  Temperature,                            ! Control Variable
  {7b9a6d38-fb98-4fb3-a65f-3acd22246ad5}, ! Schedule Name
  ;                                       ! Setpoint Node or NodeList Name

OS:SetpointManager:Scheduled,
  {2e8f0105-051f-4848-93fd-665d90864f10}, ! Handle
  Scheduled HW Temp,                      ! Name
  Temperature,                            ! Control Variable
  {79d1a727-7423-4a1b-a207-ba52d7b79585}, ! Schedule Name
  ;                                       ! Setpoint Node or NodeList Name

OS:SetpointManager:Scheduled,
  {258adc08-0f5c-4590-9dda-8e4997f4afcd}, ! Handle
  Scheduled CHW Temp,                     ! Name
  Temperature,                            ! Control Variable
  {65a1b0a1-d443-4036-bf41-434dd40cfc03}, ! Schedule Name
  ;                                       ! Setpoint Node or NodeList Name

OS:SetpointManager:MixedAir,
  {b27ac206-d7fc-4ada-aacc-4806c3f43a7b}, ! Handle
  Mixed Air Temp,                         ! Name
  Temperature,                            ! Control Variable
  ,                                       ! Reference Setpoint Node Name
  ,                                       ! Fan Inlet Node Name
  ,                                       ! Fan Outlet Node Name
  ;                                       ! Setpoint Node or NodeList Name

OS:SetpointManager:SingleZone:Reheat,
  {52b29f2b-e01f-47bf-bbe4-620a2322df12}, ! Handle
  Single Zone Reheat Temp,                ! Name
  -99,                                    ! Minimum Supply Air Temperature {C}
  99,                                     ! Maximum Supply Air Temperature {C}
  ,                                       ! Control Zone Name
  ;                                       ! Setpoint Node or NodeList Name

OS:SetpointManager:SingleZone:Cooling,
  {4ce287f0-a6d6-4e3f-abb9-1e8b773ca80a}, !- Handle
  Setpoint Manager Single Zone Cooling,   !- Name
  Temperature,                            !- Control Variable
  -99,                                    !- Minimum Supply Air Temperature {C}
  99,                                     !- Maximum Supply Air Temperature {C}
  ,                                       !- Control Zone Name
  ;                                       !- Setpoint Node or NodeList Name

OS:SetpointManager:SingleZone:Heating,
  {a1707587-1ec9-4bed-8356-2ce5d42e9137}, !- Handle
  Setpoint Manager Single Zone Heating,   !- Name
  Temperature,                            !- Control Variable
  -99,                                    !- Minimum Supply Air Temperature {C}
  99,                                     !- Maximum Supply Air Temperature {C}
  ,                                       !- Control Zone Name
  ;                                       !- Setpoint Node or NodeList Name

OS:SetpointManager:Warmest,
  {4f12e925-01e9-4ce2-9f56-daa5d024ac5d}, !- Handle
  Warmest Zone Supply Air Temp Reset,     !- Name
  Temperature,                            !- Control Variable
  12.2,                                   !- Minimum Setpoint Temperature {C}
  15.6,                                   !- Maximum Setpoint Temperature {C}
  MaximumTemperature,                     !- Strategy
  ;                                       !- Setpoint Node or NodeList Name

OS:SetpointManager:WarmestTemperatureFlow,
  {223f9c1a-a06e-40c6-96d2-c3e320870014}, !- Handle
  Warmest Zone Supply Temp and Flow Reset, !- Name
  Temperature,                            !- Control Variable
  12,                                     !- Minimum Setpoint Temperature {C}
  18,                                     !- Maximum Setpoint Temperature {C}
  TemperatureFirst,                       !- Strategy
  ,                                       !- Setpoint Node or NodeList Name
  0.2;                                    !- Minimum Turndown Ratio {dimensionless}

OS:SetpointManager:Scheduled:DualSetpoint,
  {9eae8047-b0c4-46a9-a37a-30889c83b4ae}, !- Handle
  Min Max Temp w Deadband,                !- Name
  Temperature,                            !- Control Variable
  {7aec1e64-640d-4bb1-ba20-f89f7e911d11}, !- High Setpoint Schedule Name
  {3515ff9e-912f-4d2e-bf1f-163a63d2662b}, !- Low Setpoint Schedule Name
  ;                                       !- Setpoint Node or NodeList Name

OS:SetpointManager:Coldest,
  {7c253b1f-3985-4eda-b181-401bd72749ce}, !- Handle
  Setpoint Manager Coldest,               !- Name
  Temperature,                            !- Control Variable
  20,                                     !- Minimum Setpoint Temperature {C}
  50,                                     !- Maximum Setpoint Temperature {C}
  MinimumTemperature,                     !- Strategy
  ;                                       !- Setpoint Node or NodeList Name

OS:SetpointManager:FollowGroundTemperature,
  {bffba0e9-d335-4800-9082-8a20bba507a3}, !- Handle
  Setpoint Manager Follow Ground Temperature, !- Name
  Temperature,                            !- Control Variable
  0,                                      !- Offset Temperature Difference {deltaC}
  80,                                     !- Maximum Setpoint Temperature {C}
  10,                                     !- Minimum Setpoint Temperature {C}
  ;                                       !- Setpoint Node or NodeList Name

OS:SetpointManager:FollowSystemNodeTemperature,
  {e8244f46-033d-4bf5-8571-36abd31f3527}, !- Handle
  Setpoint Manager Follow System Node Temperature, !- Name
  Temperature,                            !- Control Variable
  ,                                       !- Reference Node Name
  NodeDryBulb,                            !- Reference Temperature Type
  0,                                      !- Offset Temperature Difference {deltaC}
  100,                                    !- Maximum Limit Setpoint Temperature {C}
  0,                                      !- Minimum Limit Setpoint Temperature {C}
  ;                                       !- Setpoint Node or NodeList Name

OS:SetpointManager:MultiZone:Cooling:Average,
  {caf83914-0b9e-4da4-9bae-1a698c25b893}, !- Handle
  Setpoint Manager Multi Zone Cooling Average, !- Name
  Temperature,                            !- Control Variable
  12,                                     !- Minimum Setpoint Temperature {C}
  18,                                     !- Maximum Setpoint Temperature {C}
  ;                                       !- Setpoint Node or NodeList Name

OS:SetpointManager:MultiZone:Heating:Average,
  {0a71f5aa-a09a-4295-b793-ae7afacf1880}, !- Handle
  Setpoint Manager Multi Zone Heating Average, !- Name
  Temperature,                            !- Control Variable
  20,                                     !- Minimum Setpoint Temperature {C}
  50,                                     !- Maximum Setpoint Temperature {C}
  ;                                       !- Setpoint Node or NodeList Name

OS:SetpointManager:MultiZone:Humidity:Maximum,
  {f83b7f0e-7825-4404-8457-ceca1af0e739}, !- Handle
  Setpoint Manager Multi Zone Humidity Maximum, !- Name
  MaximumHumidityRatio,                   !- Control Variable
  0.008,                                  !- Minimum Setpoint Humidity Ratio {kgWater/kgDryAir}
  0.015,                                  !- Maximum Setpoint Humidity Ratio {kgWater/kgDryAir}
  ;                                       !- Setpoint Node or NodeList Name

OS:SetpointManager:MultiZone:MaximumHumidity:Average,
  {009553a2-3dd7-43dc-bab1-ee5d2e9abc35}, !- Handle
  Setpoint Manager Multi Zone Maximum Humidity Average, !- Name
  MaximumHumidityRatio,                   !- Control Variable
  0.008,                                  !- Minimum Setpoint Humidity Ratio {kgWater/kgDryAir}
  0.015,                                  !- Maximum Setpoint Humidity Ratio {kgWater/kgDryAir}
  ;                                       !- Setpoint Node or NodeList Name

OS:SetpointManager:SingleZone:Humidity:Maximum,
  {34e80a9c-7b5f-4161-8965-4e058bd78fba}, !- Handle
  Setpoint Manager Single Zone Humidity Maximum, !- Name
  MaximumHumidityRatio,                   !- Control Variable
  ,                                       !- Control Zone Name
  ;                                       !- Setpoint Node or NodeList Name

OS:SetpointManager:SingleZone:OneStageCooling,
  {698b3c0c-62eb-431c-a93b-571f5614da9a}, !- Handle
  Setpoint Manager Single Zone One Stage Cooling, !- Name
  Temperature,                            !- Control Variable
  -99,                                    !- Cooling Stage On Supply Air Setpoint Temperature {C}
  99,                                     !- Cooling Stage Off Supply Air Setpoint Temperature {C}
  ,                                       !- Control Zone Name
  ;                                       !- Setpoint Node or NodeList Name

OS:SetpointManager:SingleZone:OneStageHeating,
  {b6b9b2a2-3b14-4f97-8a48-aaeefd196c0e}, !- Handle
  Setpoint Manager Single Zone One Stage Heating, !- Name
  Temperature,                            !- Control Variable
  99,                                     !- Heating Stage On Supply Air Setpoint Temperature {C}
  -99,                                    !- Heating Stage Off Supply Air Setpoint Temperature {C}
  ,                                       !- Control Zone Name
  ;                                       !- Setpoint Node or NodeList Name

OS:Schedule:Ruleset,
  {7aec1e64-640d-4bb1-ba20-f89f7e911d11}, !- Handle
  Min Max Temp w Deadband Max Temp Sch,   !- Name
  {919bbba6-e6ba-472c-968a-3444cb36c6e6}, !- Schedule Type Limits Name
  {47fec27d-6610-4f32-94f3-860c2949a1d8}; !- Default Day Schedule Name

OS:Schedule:Day,
  {47fec27d-6610-4f32-94f3-860c2949a1d8}, !- Handle
  Min Max Temp w Deadband Max Day,        !- Name
  {919bbba6-e6ba-472c-968a-3444cb36c6e6}, !- Schedule Type Limits Name
  ,                                       !- Interpolate to Timestep
  24,                                     !- Hour 1
  0,                                      !- Minute 1
  26.7;                                   !- Value Until Time 1

OS:Schedule:Ruleset,
  {3515ff9e-912f-4d2e-bf1f-163a63d2662b}, !- Handle
  Min Max Temp w Deadband Min Temp Schedule, !- Name
  {554ee901-8dc9-456e-884a-409b5b97127b}, !- Schedule Type Limits Name
  {2e127e60-a413-4470-9836-838e2468abe2}; !- Default Day Schedule Name

OS:Schedule:Day,
  {2e127e60-a413-4470-9836-838e2468abe2}, !- Handle
  Min Max Temp w Deadband Min Day,        !- Name
  {554ee901-8dc9-456e-884a-409b5b97127b}, !- Schedule Type Limits Name
  ,                                       !- Interpolate to Timestep
  24,                                     !- Hour 1
  0,                                      !- Minute 1
  10;                                     !- Value Until Time 1

OS:ScheduleTypeLimits,
  {919bbba6-e6ba-472c-968a-3444cb36c6e6}, !- Handle
  Min Max Temp w Deadband Max Limits,     !- Name
  ,                                       !- Lower Limit Value
  ,                                       !- Upper Limit Value
  Continuous,                             !- Numeric Type
  Temperature;                            !- Unit Type

OS:ScheduleTypeLimits,
  {554ee901-8dc9-456e-884a-409b5b97127b}, !- Handle
  Min Max Temp w Deadband Min Limits,     !- Name
  ,                                       !- Lower Limit Value
  ,                                       !- Upper Limit Value
  Continuous,                             !- Numeric Type
  Temperature;                            !- Unit Type

OS:SetpointManager:OutdoorAirPretreat,
  {e10c0dd1-1387-4356-a5c4-34671a43d30f}, !- Handle
  OA Pretreat,                            !- Name
  Temperature,                            !- Control Variable
  ,                                       !- Minimum Setpoint Temperature {C}
  ,                                       !- Maximum Setpoint Temperature {C}
  ,                                       !- Minimum Setpoint Humidity Ratio {kgWater/kgDryAir}
  ,                                       !- Maximum Setpoint Humidity Ratio {kgWater/kgDryAir}
  ,                                       !- Reference Setpoint Node Name
  ,                                       !- Mixed Air Stream Node Name
  ,                                       !- Outdoor Air Stream Node Name
  ,                                       !- Return Air Stream Node Name
  ;                                       !- Setpoint Node or NodeList Name

OS:Fan:ConstantVolume,
  {c15ef75a-56db-4ec3-9720-d06294deabcc}, ! Handle
  Const Spd Fan,                          ! Name
  {9f54092d-a4a8-41b8-a381-c4c332ecb843}, ! Availability Schedule Name
  ,                                       ! Fan Efficiency
  ,                                       ! Pressure Rise {Pa}
  AutoSize,                               ! Maximum Flow Rate {m3/s}
  ,                                       ! Motor Efficiency
  ,                                       ! Motor In Airstream Fraction
  ,                                       ! Air Inlet Node Name
  ,                                       ! Air Outlet Node Name
  ;                                       ! End-Use Subcategory

OS:Fan:VariableVolume,
  {ade4771b-26f4-404b-9a94-07c5fee085ca}, ! Handle
  Var Spd Fan,                            ! Name
  {9f54092d-a4a8-41b8-a381-c4c332ecb843}, ! Availability Schedule Name
  0.60450000000000004,                    ! Fan Efficiency
  1017.592,                               ! Pressure Rise {Pa}
  Autosize,                               ! Maximum Flow Rate {m3/s}
  FixedFlowRate,                          ! Fan Power Minimum Flow Rate Input Method
  0,                                      ! Fan Power Minimum Flow Fraction
  0,                                      ! Fan Power Minimum Air Flow Rate {m3/s}
  0.93000000000000005,                    ! Motor Efficiency
  1,                                      ! Motor In Airstream Fraction
  0.040759893999999998,                   ! Fan Power Coefficient 1
  0.08804497,                             ! Fan Power Coefficient 2
  -0.072926119999999997,                  ! Fan Power Coefficient 3
  0.94373982300000003,                    ! Fan Power Coefficient 4
  0,                                      ! Fan Power Coefficient 5
  ,                                       ! Air Inlet Node Name
  ,                                       ! Air Outlet Node Name
  ;                                       ! End-Use Subcategory

OS:Coil:Heating:Gas,
  {e5360a5e-82a4-4772-96b8-a55c6d871995}, ! Handle
  Gas Htg Coil,                           ! Name
  {9f54092d-a4a8-41b8-a381-c4c332ecb843}, ! Availability Schedule Name
  0.80000000000000004,                    ! Gas Burner Efficiency
  AutoSize,                               ! Nominal Capacity {W}
  ,                                       ! Air Inlet Node Name
  ,                                       ! Air Outlet Node Name
  ,                                       ! Temperature Setpoint Node Name
  0,                                      ! Parasitic Electric Load {W}
  ,                                       ! Part Load Fraction Correlation Curve Name
  0;                                      ! Parasitic Gas Load {W}

OS:Coil:Heating:Electric,
  {c5aca90c-39a5-4144-b4a5-4cbdc860c65e}, ! Handle
  Elec Htg Coil,                          ! Name
  {9f54092d-a4a8-41b8-a381-c4c332ecb843}, ! Availability Schedule Name
  ,                                       ! Efficiency
  ,                                       ! Nominal Capacity {W}
  ,                                       ! Air Inlet Node Name
  ;                                       ! Air Outlet Node Name

OS:Coil:Cooling:DX:SingleSpeed,
  {2323aae7-f591-444f-9ed4-ff6eb640f190}, ! Handle
  1 Spd DX Clg Coil,                      ! Name
  {9f54092d-a4a8-41b8-a381-c4c332ecb843}, ! Availability Schedule Name
  Autosize,                               ! Rated Total Cooling Capacity {W}
  Autosize,                               ! Rated Sensible Heat Ratio
  3,                                      ! Rated COP {W/W}
  Autosize,                               ! Rated Air Flow Rate {m3/s}
  773.29999999999995,                     ! Rated Evaporator Fan Power Per Volume Flow Rate {W/(m3/s)}
  ,                                       ! Air Inlet Node Name
  ,                                       ! Air Outlet Node Name
  {43241c62-f9aa-470c-877b-aed134698156}, ! Total Cooling Capacity Function of Temperature Curve Name
  {94e3e298-d691-470d-ac68-e0271ae32bb2}, ! Total Cooling Capacity Function of Flow Fraction Curve Name
  {8a71bbe5-637a-4261-8c9e-10d02300a49a}, ! Energy Input Ratio Function of Temperature Curve Name
  {10a62043-5331-4374-a44c-8c540d3c6983}, ! Energy Input Ratio Function of Flow Fraction Curve Name
  {01338ac0-de4d-4703-8c69-18d51edd0927}, ! Part Load Fraction Correlation Curve Name
  ,                                       ! Nominal Time for Condensate Removal to Begin {s}
  ,                                       ! Ratio of Initial Moisture Evaporation Rate and Steady State Latent Capacity {dimensionless}
  ,                                       ! Maximum Cycling Rate {cycles/hr}
  ,                                       ! Latent Capacity Time Constant {s}
  ,                                       ! Condenser Air Inlet Node Name
  AirCooled,                              ! Condenser Type
  0,                                      ! Evaporative Condenser Effectiveness {dimensionless}
  Autosize,                               ! Evaporative Condenser Air Flow Rate {m3/s}
  Autosize,                               ! Evaporative Condenser Pump Rated Power Consumption {W}
  0,                                      ! Crankcase Heater Capacity {W}
  0,                                      ! Maximum Outdoor Dry-Bulb Temperature for Crankcase Heater Operation {C}
  ,                                       ! Supply Water Storage Tank Name
  ,                                       ! Condensate Collection Water Storage Tank Name
  0,                                      ! Basin Heater Capacity {W/K}
  10,                                     ! Basin Heater Setpoint Temperature {C}
  ;                                       ! Basin Heater Operating Schedule Name

OS:CoolingTower:SingleSpeed,
  {b4c8a4f7-5eb1-4262-8227-0f232c5cfc93}, !- Handle
  1 Spd Cooling Tower,                    !- Name
  ,                                       !- Water Inlet Node Name
  ,                                       !- Water Outlet Node Name
  autosize,                               !- Design Water Flow Rate {m3/s}
  autosize,                               !- Design Air Flow Rate {m3/s}
  autosize,                               !- Fan Power at Design Air Flow Rate {W}
  autosize,                               !- U-Factor Times Area Value at Design Air Flow Rate {W/K}
  autosize,                               !- Air Flow Rate in Free Convection Regime {m3/s}
  autosize,                               !- U-Factor Times Area Value at Free Convection Air Flow Rate {W/K}
  UFactorTimesAreaAndDesignWaterFlowRate, !- Performance Input Method
  ,                                       !- Nominal Capacity {W}
  0,                                      !- Free Convection Capacity {W}
  0,                                      !- Basin Heater Capacity {W/K}
  ,                                       !- Basin Heater Setpoint Temperature {C}
  ,                                       !- Basin Heater Operating Schedule Name
  LossFactor,                             !- Evaporation Loss Mode
  0.2,                                    !- Evaporation Loss Factor {percent/K}
  0.008,                                  !- Drift Loss Percent {percent}
  ConcentrationRatio,                     !- Blowdown Calculation Mode
  3,                                      !- Blowdown Concentration Ratio
  ,                                       !- Blowdown Makeup Water Usage Schedule Name
  ,                                       !- Outdoor Air Inlet Node Name
  FanCycling,                             !- Capacity Control
  1,                                      !- Number of Cells
  MinimalCell,                            !- Cell Control
  0.33,                                   !- Cell Minimum  Water Flow Rate Fraction
  2.5,                                    !- Cell Maximum Water Flow Rate Fraction
  1;                                      !- Sizing Factor

OS:Curve:Biquadratic,
  {43241c62-f9aa-470c-877b-aed134698156}, ! Handle
  OS:Curve:Biquadratic 1,                 ! Name
  0.42415000000000003,                    ! Coefficient1 Constant
  0.044260000000000001,                   ! Coefficient2 x
  -0.00042000000000000002,                ! Coefficient3 x**2
  0.0033300000000000001,                  ! Coefficient4 y
  -8.0000000000000007e-05,                ! Coefficient5 y**2