
OS:Version,
  {b55ca68c-ac01-44f4-b625-86e0c0b4f6ce}, !- Handle
  1.0.4;                                  !- Version Identifier

OS:SimulationControl,
  {36b3d4fc-0861-42bc-a296-86fa1b49987e}, !- Handle
  Yes,                                    !- Do Zone Sizing Calculation
  Yes,                                    !- Do System Sizing Calculation
  ,                                       !- Do Plant Sizing Calculation
  No,                                     !- Run Simulation for Sizing Periods
  Yes;                                    !- Run Simulation for Weather File Run Periods

OS:Timestep,
  {f6e0c014-924f-46c7-9c28-33b447f57c78}, !- Handle
  6;                                      !- Number of Timesteps per Hour

OS:RunPeriod,
  {7ea27806-1241-43b4-926f-ebca7514d7d1}, !- Handle
  Run Period 1,                           !- Name
  1,                                      !- Begin Month
  1,                                      !- Begin Day of Month
  12,                                     !- End Month
  31,                                     !- End Day of Month
  No,                                     !- Use Weather File Holidays and Special Days
  No,                                     !- Use Weather File Daylight Saving Period
  No,                                     !- Apply Weekend Holiday Rule
  Yes,                                    !- Use Weather File Rain Indicators
  Yes,                                    !- Use Weather File Snow Indicators
  1;                                      !- Number of Times Runperiod to be Repeated

OS:SurfaceConvectionAlgorithm:Inside,
  {3b4fce50-993b-4a66-ac4b-7ed7387e06b7}, !- Handle
  TARP;                                   !- Algorithm

OS:SurfaceConvectionAlgorithm:Outside,
  {92eb3b77-b79b-4666-b684-d8213fe929f1}, !- Handle
  DOE-2;                                  !- Algorithm

OS:HeatBalanceAlgorithm,
  {d10c0dfd-a300-4c33-ad84-ef50d56cceee}, !- Handle
  ConductionTransferFunction,             !- Algorithm
  200;                                    !- Surface Temperature Upper Limit {F}

OS:ZoneAirHeatBalanceAlgorithm,
  {8aeebe91-4f72-4d45-ad24-94d49f900560}, !- Handle
  AnalyticalSolution;                     !- Algorithm

OS:ConvergenceLimits,
  {a18f734e-1b73-4004-b9da-66f35c9dd0db}; !- Handle

OS:ShadowCalculation,
  {04030de2-19a1-4dbb-8655-05ac28737a29}, !- Handle
  7,                                      !- Calculation Frequency
  15000;                                  !- Maximum Figures in Shadow Overlap Calculations

OS:Site,
  {9b132b3c-466e-4ab8-bb6f-fae6bbd33a6e}, !- Handle
  Site 1,                                 !- Name
  41.77,                                  !- Latitude {deg}
  -87.75,                                 !- Longitude {deg}
  -6,                                     !- Time Zone {hr}
  190,                                    !- Elevation {m}
  ;                                       !- Terrain

OS:Site:GroundTemperature:BuildingSurface,
  {3a23a3c6-4303-4058-bb17-350fbaae39c0}, !- Handle
  19.527,                                 !- January Ground Temperature {C}
  19.502,                                 !- February Ground Temperature {C}
  19.536,                                 !- March Ground Temperature {C}
  19.598,                                 !- April Ground Temperature {C}
  20.002,                                 !- May Ground Temperature {C}
  21.64,                                  !- June Ground Temperature {C}
  22.225,                                 !- July Ground Temperature {C}
  22.375,                                 !- August Ground Temperature {C}
  21.449,                                 !- September Ground Temperature {C}
  20.121,                                 !- October Ground Temperature {C}
  19.802,                                 !- November Ground Temperature {C}
  19.633;                                 !- December Ground Temperature {C}

OS:Site:WaterMainsTemperature,
  {29704e41-c31d-45d2-a07a-10cc0014c037}, !- Handle
  Correlation,                            !- Calculation Method
  ,                                       !- Temperature Schedule Name
  9.69,                                   !- Annual Average Outdoor Air Temperature {C}
  28.1;                                   !- Maximum Difference In Monthly Average Outdoor Air Temperatures {deltaC}

OS:SizingPeriod:DesignDay,
  {10f6f69e-eadc-4c9c-9459-84284762e52a}, !- Handle
  Sizing Period Design Day 1,             !- Name
  -20.6,                                  !- Maximum Dry-Bulb Temperature {C}
  0,                                      !- Daily Dry-Bulb Temperature Range {deltaC}
  -20.6,                                  !- Humidity Indicating Conditions at Maximum Dry-Bulb {BasedOnField A3}
  99063,                                  !- Barometric Pressure {Pa}
  4.9,                                    !- Wind Speed {m/s}
  270,                                    !- Wind Direction {deg}
  0,                                      !- Sky Clearness
  0,                                      !- Rain Indicator
  0,                                      !- Snow Indicator
  21,                                     !- Day of Month
  1,                                      !- Month
  WinterDesignDay,                        !- Day Type
  0,                                      !- Daylight Saving Time Indicator
  WetBulb,                                !- Humidity Indicating Type
  ,                                       !- Humidity Indicating Day Schedule Name
  DefaultMultipliers,                     !- Dry-Bulb Temperature Range Modifier Type
  ,                                       !- Dry-Bulb Temperature Range Modifier Schedule Name
  AshraeClearSky;                         !- Solar Model Indicator

OS:SizingPeriod:DesignDay,
  {b263ad1d-6d99-4d15-bea7-7165577ed972}, !- Handle
  Sizing Period Design Day 2,             !- Name
  33.2,                                   !- Maximum Dry-Bulb Temperature {C}
  10.7,                                   !- Daily Dry-Bulb Temperature Range {deltaC}
  23.8,                                   !- Humidity Indicating Conditions at Maximum Dry-Bulb {BasedOnField A3}
  99063,                                  !- Barometric Pressure {Pa}
  5.3,                                    !- Wind Speed {m/s}
  230,                                    !- Wind Direction {deg}
  1,                                      !- Sky Clearness
  0,                                      !- Rain Indicator
  0,                                      !- Snow Indicator
  21,                                     !- Day of Month
  7,                                      !- Month
  SummerDesignDay,                        !- Day Type
  0,                                      !- Daylight Saving Time Indicator
  WetBulb,                                !- Humidity Indicating Type
  ,                                       !- Humidity Indicating Day Schedule Name
  DefaultMultipliers,                     !- Dry-Bulb Temperature Range Modifier Type
  ,                                       !- Dry-Bulb Temperature Range Modifier Schedule Name
  AshraeClearSky;                         !- Solar Model Indicator

OS:ScheduleTypeLimits,
  {51a08491-97d6-428f-8485-41d8624f8e00}, !- Handle
  Temperature,                            !- Name
  -60,                                    !- Lower Limit Value {BasedOnField A4}
  200,                                    !- Upper Limit Value {BasedOnField A4}
  CONTINUOUS,                             !- Numeric Type
  Temperature;                            !- Unit Type

OS:DefaultScheduleSet,
  {aaa20100-d6a5-446c-a63b-0f9649cafdf5}, !- Handle
  Default Schedules,                      !- Name
  ,                                       !- Hours of Operation Schedule Name
  {9b853452-b771-48ca-9f2c-05c243d0f1f6}, !- Number of People Schedule Name
  {bed72870-d7ea-4e85-b738-a632fedf3fdb}, !- People Activity Level Schedule Name
  {bba638bf-3816-4416-8f54-0633bd7729c3}, !- Lighting Schedule Name
  {cac26b8c-1fbb-4f0e-92a3-ad7bd639c68f}, !- Electric Equipment Schedule Name
  {47cab027-a35b-4a94-83bf-b23469fc8d9d}, !- Gas Equipment Schedule Name
  {3d250e09-0f65-4998-9971-5abc2b8f936c}, !- Hot Water Equipment Schedule Name
  {5b4799bc-13f7-4314-8061-ae7719980b62}, !- Infiltration Schedule Name
  ,                                       !- Steam Equipment Schedule Name
  ;                                       !- Other Equipment Schedule Name

OS:Schedule:Ruleset,
  {9b853452-b771-48ca-9f2c-05c243d0f1f6}, !- Handle
  Medium Office Number of People Schedule, !- Name
  {82ec3156-1543-41e5-8c57-951022a7a21a}, !- Schedule Type Limits Name
  {a3f24894-52d4-4b07-902f-a4789c7ab5ab}, !- Default Day Schedule Name
  {a8f22e66-9a6c-4a34-9f06-f5d9acddf672}; !- Summer Design Day Schedule Name

OS:Schedule:Day,
  {a3f24894-52d4-4b07-902f-a4789c7ab5ab}, !- Handle
  Medium Office Number of People All Other Days Schedule, !- Name
  {82ec3156-1543-41e5-8c57-951022a7a21a}, !- Schedule Type Limits Name
  ,                                       !- Interpolate to Timestep
  24,                                     !- Hour 1
  0,                                      !- Minute 1
  0;                                      !- Value Until Time 1

OS:Schedule:Day,
  {7d386e28-4ebc-41df-9c4b-ecb3d777418a}, !- Handle
  Medium Office Number of People Summer Design Day Schedule, !- Name
  ,                                       !- Schedule Type Limits Name
  ,                                       !- Interpolate to Timestep
  6,                                      !- Hour 1
  0,                                      !- Minute 1
  0,                                      !- Value Until Time 1
  22,                                     !- Hour 2
  0,                                      !- Minute 2
  1,                                      !- Value Until Time 2
  24,                                     !- Hour 3
  0,                                      !- Minute 3
  0.05;                                   !- Value Until Time 3

OS:Schedule:Day,
  {a8f22e66-9a6c-4a34-9f06-f5d9acddf672}, !- Handle
  Medium Office Number of People Summer Design Day Schedule 1, !- Name
  {82ec3156-1543-41e5-8c57-951022a7a21a}, !- Schedule Type Limits Name
  ,                                       !- Interpolate to Timestep
  6,                                      !- Hour 1
  0,                                      !- Minute 1
  0,                                      !- Value Until Time 1
  22,                                     !- Hour 2
  0,                                      !- Minute 2
  1,                                      !- Value Until Time 2
  24,                                     !- Hour 3
  0,                                      !- Minute 3
  0.05;                                   !- Value Until Time 3

OS:Schedule:Rule,
  {fe79e36b-23d4-477d-8806-e79346e8b4e8}, !- Handle
  Medium Office Number of People Schedule Weekdays Rule, !- Name
  {9b853452-b771-48ca-9f2c-05c243d0f1f6}, !- Schedule Ruleset Name
  1,                                      !- Rule Order
  {eb3fbae0-eff7-4ee9-8aa5-9d011d7a1a8b}, !- Day Schedule Name
  ,                                       !- Apply Sunday
  Yes,                                    !- Apply Monday
  Yes,                                    !- Apply Tuesday
  Yes,                                    !- Apply Wednesday
  Yes,                                    !- Apply Thursday
  Yes;                                    !- Apply Friday

OS:Schedule:Day,
  {eb3fbae0-eff7-4ee9-8aa5-9d011d7a1a8b}, !- Handle
  Medium Office Number of People Weekdays Schedule, !- Name
  {82ec3156-1543-41e5-8c57-951022a7a21a}, !- Schedule Type Limits Name
  ,                                       !- Interpolate to Timestep
  6,                                      !- Hour 1
  0,                                      !- Minute 1
  0,                                      !- Value Until Time 1
  7,                                      !- Hour 2
  0,                                      !- Minute 2
  0.1,                                    !- Value Until Time 2
  8,                                      !- Hour 3
  0,                                      !- Minute 3
  0.2,                                    !- Value Until Time 3
  12,                                     !- Hour 4
  0,                                      !- Minute 4
  0.95,                                   !- Value Until Time 4
  13,                                     !- Hour 5
  0,                                      !- Minute 5
  0.5,                                    !- Value Until Time 5
  17,                                     !- Hour 6
  0,                                      !- Minute 6
  0.95,                                   !- Value Until Time 6
  18,                                     !- Hour 7
  0,                                      !- Minute 7
  0.7,                                    !- Value Until Time 7
  20,                                     !- Hour 8
  0,                                      !- Minute 8
  0.4,                                    !- Value Until Time 8
  22,                                     !- Hour 9
  0,                                      !- Minute 9
  0.1,                                    !- Value Until Time 9
  24,                                     !- Hour 10
  0,                                      !- Minute 10
  0.05;                                   !- Value Until Time 10

OS:Schedule:Rule,
  {287550f6-5153-4561-b3af-3dafbd44e9c3}, !- Handle
  Medium Office Number of People Schedule Saturday Rule, !- Name
  {9b853452-b771-48ca-9f2c-05c243d0f1f6}, !- Schedule Ruleset Name
  0,                                      !- Rule Order
  {63bbc9bf-cf98-4825-9100-1e4ecdb5aae4}, !- Day Schedule Name
  ,                                       !- Apply Sunday
  ,                                       !- Apply Monday
  ,                                       !- Apply Tuesday
  ,                                       !- Apply Wednesday
  ,                                       !- Apply Thursday
  ,                                       !- Apply Friday
  Yes;                                    !- Apply Saturday

OS:Schedule:Day,
  {63bbc9bf-cf98-4825-9100-1e4ecdb5aae4}, !- Handle
  Medium Office Number of People Saturday Schedule, !- Name
  {82ec3156-1543-41e5-8c57-951022a7a21a}, !- Schedule Type Limits Name
  ,                                       !- Interpolate to Timestep
  6,                                      !- Hour 1
  0,                                      !- Minute 1
  0,                                      !- Value Until Time 1
  8,                                      !- Hour 2
  0,                                      !- Minute 2
  0.1,                                    !- Value Until Time 2
  14,                                     !- Hour 3
  0,                                      !- Minute 3
  0.5,                                    !- Value Until Time 3
  17,                                     !- Hour 4
  0,                                      !- Minute 4
  0.1,                                    !- Value Until Time 4
  24,                                     !- Hour 5
  0,                                      !- Minute 5
  0;                                      !- Value Until Time 5

OS:ScheduleTypeLimits,
  {82ec3156-1543-41e5-8c57-951022a7a21a}, !- Handle
  Fractional,                             !- Name
  0,                                      !- Lower Limit Value {BasedOnField A4}
  1,                                      !- Upper Limit Value {BasedOnField A4}
  Continuous;                             !- Numeric Type

OS:Schedule:Ruleset,
  {bed72870-d7ea-4e85-b738-a632fedf3fdb}, !- Handle
  Medium Office People Activity Level Schedule, !- Name
  {b3a9fc0d-cc6a-42dd-88a5-4ee3668b7dc4}, !- Schedule Type Limits Name
  {261a6970-f003-49dc-a02c-6be1f8f41a2e}; !- Default Day Schedule Name

OS:Schedule:Day,
  {261a6970-f003-49dc-a02c-6be1f8f41a2e}, !- Handle
  Medium Office People Activity Level All Days Schedule, !- Name
  {b3a9fc0d-cc6a-42dd-88a5-4ee3668b7dc4}, !- Schedule Type Limits Name
  ,                                       !- Interpolate to Timestep
  24,                                     !- Hour 1
  0,                                      !- Minute 1
  120;                                    !- Value Until Time 1

OS:ScheduleTypeLimits,
  {b3a9fc0d-cc6a-42dd-88a5-4ee3668b7dc4}, !- Handle
  ActivityLevel,                          !- Name
  0,                                      !- Lower Limit Value {BasedOnField A4}
  ,                                       !- Upper Limit Value {BasedOnField A4}
  Continuous,                             !- Numeric Type
  ActivityLevel;                          !- Unit Type

OS:Schedule:Ruleset,
  {bba638bf-3816-4416-8f54-0633bd7729c3}, !- Handle
  Medium Office Lighting Schedule,        !- Name
  {82ec3156-1543-41e5-8c57-951022a7a21a}, !- Schedule Type Limits Name
  {1deb543a-f6fc-445e-a0a5-46bc2db55b60}, !- Default Day Schedule Name
  {9c4eb258-4a50-4189-8f3a-77cc4d131ef2}, !- Summer Design Day Schedule Name
  {e02b387e-643e-4910-82be-9c3dea68ea3d}; !- Winter Design Day Schedule Name

OS:Schedule:Day,
  {1deb543a-f6fc-445e-a0a5-46bc2db55b60}, !- Handle
  Medium Office Lighting All Other Days Schedule, !- Name
  {82ec3156-1543-41e5-8c57-951022a7a21a}, !- Schedule Type Limits Name
  ,                                       !- Interpolate to Timestep
  24,                                     !- Hour 1
  0,                                      !- Minute 1
  0.05;                                   !- Value Until Time 1

OS:Schedule:Day,
  {2901dd7d-bc25-4c7f-a968-c013d8b1c2fe}, !- Handle
  Medium Office Lighting Summer Design Day Schedule, !- Name
  ,                                       !- Schedule Type Limits Name
  ,                                       !- Interpolate to Timestep
  6,                                      !- Hour 1
  0,                                      !- Minute 1
  1,                                      !- Value Until Time 1
  24,                                     !- Hour 2
  0,                                      !- Minute 2
  0;                                      !- Value Until Time 2

OS:Schedule:Day,
  {9c4eb258-4a50-4189-8f3a-77cc4d131ef2}, !- Handle
  Medium Office Lighting Summer Design Day Schedule 1, !- Name
  {82ec3156-1543-41e5-8c57-951022a7a21a}, !- Schedule Type Limits Name
  ,                                       !- Interpolate to Timestep
  6,                                      !- Hour 1
  0,                                      !- Minute 1
  1,                                      !- Value Until Time 1
  24,                                     !- Hour 2
  0,                                      !- Minute 2
  0;                                      !- Value Until Time 2

OS:Schedule:Day,
  {937dc8c6-2fa0-48bb-a989-293f050b2612}, !- Handle
  Medium Office Lighting Winter Design Day Schedule, !- Name
  ,                                       !- Schedule Type Limits Name
  ,                                       !- Interpolate to Timestep
  24,                                     !- Hour 1
  0,                                      !- Minute 1
  0;                                      !- Value Until Time 1

OS:Schedule:Day,
  {e02b387e-643e-4910-82be-9c3dea68ea3d}, !- Handle
  Medium Office Lighting Winter Design Day Schedule 1, !- Name
  {82ec3156-1543-41e5-8c57-951022a7a21a}, !- Schedule Type Limits Name
  ,                                       !- Interpolate to Timestep
  24,                                     !- Hour 1
  0,                                      !- Minute 1
  0;                                      !- Value Until Time 1

OS:Schedule:Rule,
  {d35220a3-ee41-4b79-ae27-71047f0386f9}, !- Handle
  Medium Office Lighting Schedule Weekdays Rule, !- Name
  {bba638bf-3816-4416-8f54-0633bd7729c3}, !- Schedule Ruleset Name
  1,                                      !- Rule Order
  {16b21b97-7eb3-4cfd-acc8-07f3428796aa}, !- Day Schedule Name
  ,                                       !- Apply Sunday
  Yes,                                    !- Apply Monday
  Yes,                                    !- Apply Tuesday
  Yes,                                    !- Apply Wednesday
  Yes,                                    !- Apply Thursday
  Yes;                                    !- Apply Friday

OS:Schedule:Day,
  {16b21b97-7eb3-4cfd-acc8-07f3428796aa}, !- Handle
  Medium Office Lighting Weekdays Schedule, !- Name
  {82ec3156-1543-41e5-8c57-951022a7a21a}, !- Schedule Type Limits Name
  ,                                       !- Interpolate to Timestep
  5,                                      !- Hour 1
  0,                                      !- Minute 1
  0.05,                                   !- Value Until Time 1
  7,                                      !- Hour 2
  0,                                      !- Minute 2
  0.1,                                    !- Value Until Time 2
  8,                                      !- Hour 3
  0,                                      !- Minute 3
  0.3,                                    !- Value Until Time 3
  17,                                     !- Hour 4
  0,                                      !- Minute 4
  0.9,                                    !- Value Until Time 4
  18,                                     !- Hour 5
  0,                                      !- Minute 5
  0.7,                                    !- Value Until Time 5
  20,                                     !- Hour 6
  0,                                      !- Minute 6
  0.5,                                    !- Value Until Time 6
  22,                                     !- Hour 7
  0,                                      !- Minute 7
  0.3,                                    !- Value Until Time 7
  23,                                     !- Hour 8
  0,                                      !- Minute 8
  0.1,                                    !- Value Until Time 8
  24,                                     !- Hour 9
  0,                                      !- Minute 9
  0.05;                                   !- Value Until Time 9

OS:Schedule:Rule,
  {8b7b1889-bad7-4096-a4a8-3a172fa47559}, !- Handle
  Medium Office Lighting Schedule Saturday Rule, !- Name
  {bba638bf-3816-4416-8f54-0633bd7729c3}, !- Schedule Ruleset Name
  0,                                      !- Rule Order
  {3636dfb4-5a28-40ff-8102-9e76f7f76721}, !- Day Schedule Name
  ,                                       !- Apply Sunday
  ,                                       !- Apply Monday
  ,                                       !- Apply Tuesday
  ,                                       !- Apply Wednesday
  ,                                       !- Apply Thursday
  ,                                       !- Apply Friday
  Yes;                                    !- Apply Saturday

OS:Schedule:Day,
  {3636dfb4-5a28-40ff-8102-9e76f7f76721}, !- Handle
  Medium Office Lighting Saturday Schedule, !- Name
  {82ec3156-1543-41e5-8c57-951022a7a21a}, !- Schedule Type Limits Name
  ,                                       !- Interpolate to Timestep
  6,                                      !- Hour 1
  0,                                      !- Minute 1
  0.05,                                   !- Value Until Time 1
  8,                                      !- Hour 2
  0,                                      !- Minute 2
  0.1,                                    !- Value Until Time 2
  14,                                     !- Hour 3
  0,                                      !- Minute 3
  0.5,                                    !- Value Until Time 3
  17,                                     !- Hour 4
  0,                                      !- Minute 4
  0.15,                                   !- Value Until Time 4
  24,                                     !- Hour 5
  0,                                      !- Minute 5
  0.05;                                   !- Value Until Time 5

OS:Schedule:Ruleset,
  {cac26b8c-1fbb-4f0e-92a3-ad7bd639c68f}, !- Handle
  Medium Office Electric Equipment Schedule, !- Name
  {82ec3156-1543-41e5-8c57-951022a7a21a}, !- Schedule Type Limits Name
  {d8d0c1a5-9161-4269-83c9-18e75180eeec}, !- Default Day Schedule Name
  {dae06089-4c1e-4639-b2ec-b6a1cc064dad}, !- Summer Design Day Schedule Name
  {8569625c-9531-4246-a35b-2e2c1755c85c}; !- Winter Design Day Schedule Name

OS:Schedule:Day,
  {d8d0c1a5-9161-4269-83c9-18e75180eeec}, !- Handle
  Medium Office Electric Equipment All Other Days Schedule, !- Name
  {82ec3156-1543-41e5-8c57-951022a7a21a}, !- Schedule Type Limits Name
  ,                                       !- Interpolate to Timestep
  24,                                     !- Hour 1
  0,                                      !- Minute 1
  0.3;                                    !- Value Until Time 1

OS:Schedule:Day,
  {e18d839f-4e95-4286-a470-e4655432223a}, !- Handle
  Medium Office Electric Equipment Summer Design Day Schedule, !- Name
  ,                                       !- Schedule Type Limits Name
  ,                                       !- Interpolate to Timestep
  6,                                      !- Hour 1
  0,                                      !- Minute 1
  1,                                      !- Value Until Time 1
  24,                                     !- Hour 2
  0,                                      !- Minute 2
  0;                                      !- Value Until Time 2

OS:Schedule:Day,
  {dae06089-4c1e-4639-b2ec-b6a1cc064dad}, !- Handle
  Medium Office Electric Equipment Summer Design Day Schedule 1, !- Name
  {82ec3156-1543-41e5-8c57-951022a7a21a}, !- Schedule Type Limits Name
  ,                                       !- Interpolate to Timestep
  6,                                      !- Hour 1
  0,                                      !- Minute 1
  1,                                      !- Value Until Time 1
  24,                                     !- Hour 2
  0,                                      !- Minute 2
  0;                                      !- Value Until Time 2

OS:Schedule:Day,
  {acb715d3-a6ad-4783-9e79-795e5ff1dcd6}, !- Handle
  Medium Office Electric Equipment Winter Design Day Schedule, !- Name
  ,                                       !- Schedule Type Limits Name
  ,                                       !- Interpolate to Timestep
  24,                                     !- Hour 1
  0,                                      !- Minute 1
  0;                                      !- Value Until Time 1

OS:Schedule:Day,
  {8569625c-9531-4246-a35b-2e2c1755c85c}, !- Handle
  Medium Office Electric Equipment Winter Design Day Schedule 1, !- Name
  {82ec3156-1543-41e5-8c57-951022a7a21a}, !- Schedule Type Limits Name
  ,                                       !- Interpolate to Timestep
  24,                                     !- Hour 1
  0,                                      !- Minute 1
  0;                                      !- Value Until Time 1

OS:Schedule:Rule,
  {de4279d4-4cfc-4d8e-ac1f-3426678c93c8}, !- Handle
  Medium Office Electric Equipment Schedule Weekdays Rule, !- Name
  {cac26b8c-1fbb-4f0e-92a3-ad7bd639c68f}, !- Schedule Ruleset Name
  1,                                      !- Rule Order
  {c78798c1-7d05-4d0c-95f3-a2def001f5fc}, !- Day Schedule Name
  ,                                       !- Apply Sunday
  Yes,                                    !- Apply Monday
  Yes,                                    !- Apply Tuesday
  Yes,                                    !- Apply Wednesday
  Yes,                                    !- Apply Thursday
  Yes;                                    !- Apply Friday

OS:Schedule:Day,
  {c78798c1-7d05-4d0c-95f3-a2def001f5fc}, !- Handle
  Medium Office Electric Equipment Weekdays Schedule, !- Name
  {82ec3156-1543-41e5-8c57-951022a7a21a}, !- Schedule Type Limits Name
  ,                                       !- Interpolate to Timestep
  8,                                      !- Hour 1
  0,                                      !- Minute 1
  0.4,                                    !- Value Until Time 1
  12,                                     !- Hour 2
  0,                                      !- Minute 2
  0.9,                                    !- Value Until Time 2
  13,                                     !- Hour 3
  0,                                      !- Minute 3
  0.8,                                    !- Value Until Time 3
  17,                                     !- Hour 4
  0,                                      !- Minute 4
  0.9,                                    !- Value Until Time 4
  18,                                     !- Hour 5
  0,                                      !- Minute 5
  0.8,                                    !- Value Until Time 5
  20,                                     !- Hour 6
  0,                                      !- Minute 6
  0.6,                                    !- Value Until Time 6
  22,                                     !- Hour 7
  0,                                      !- Minute 7
  0.5,                                    !- Value Until Time 7
  24,                                     !- Hour 8
  0,                                      !- Minute 8
  0.4;                                    !- Value Until Time 8

OS:Schedule:Rule,
  {9e052b10-222d-4243-8eb3-a352a3ffee85}, !- Handle
  Medium Office Electric Equipment Schedule Saturday Rule, !- Name
  {cac26b8c-1fbb-4f0e-92a3-ad7bd639c68f}, !- Schedule Ruleset Name
  0,                                      !- Rule Order
  {4f38f3cd-ed4d-499d-8dfc-1e5a4ae4bda0}, !- Day Schedule Name
  ,                                       !- Apply Sunday
  ,                                       !- Apply Monday
  ,                                       !- Apply Tuesday
  ,                                       !- Apply Wednesday