
OS:Version,
  {e3d90ded-2386-42eb-b377-d995b77cb49b}, !- Handle
  3.3.0;                                  !- Version Identifier

OS:Site,
  {cd5368b4-c23f-40e5-9c13-d2d9d5553645}, !- Handle
  CHN_Sichuan_Chengdu,                    !- Name
  30.67,                                  !- Latitude {deg}
  104.02,                                 !- Longitude {deg}
  8,                                      !- Time Zone {hr}
  506.1,                                  !- Elevation {m}
  Suburbs;                                !- Terrain

OS:SimulationControl,
  {ece1b451-18e7-43fa-b9a6-de67f815e9ee}, !- Handle
  Yes,                                    !- Do Zone Sizing Calculation
  Yes,                                    !- Do System Sizing Calculation
  Yes,                                    !- Do Plant Sizing Calculation
  Yes,                                    !- Run Simulation for Sizing Periods
  Yes,                                    !- Run Simulation for Weather File Run Periods
  0.04,                                   !- Loads Convergence Tolerance Value {W}
  0.4,                                    !- Temperature Convergence Tolerance Value {deltaC}
  FullExterior,                           !- Solar Distribution
  25,                                     !- Maximum Number of Warmup Days
  6,                                      !- Minimum Number of Warmup Days
  No,                                     !- Do HVAC Sizing Simulation for Sizing Periods
  1;                                      !- Maximum Number of HVAC Sizing Simulation Passes

OS:SizingPeriod:DesignDay,
  {a5828ef3-2364-497c-b4ba-354a37b5e079}, !- Handle
  Chengdu Ann Htg 99% Condns DB,          !- Name
  1.6,                                    !- Maximum Dry-Bulb Temperature {C}
  0,                                      !- Daily Dry-Bulb Temperature Range {deltaC}
  95391,                                  !- Barometric Pressure {Pa}
  0.5,                                    !- Wind Speed {m/s}
  340,                                    !- Wind Direction {deg}
  0,                                      !- Sky Clearness
  No,                                     !- Rain Indicator
  No,                                     !- Snow Indicator
  21,                                     !- Day of Month
  1,                                      !- Month
  WinterDesignDay,                        !- Day Type
  No,                                     !- Daylight Saving Time Indicator
  Wetbulb,                                !- Humidity Condition Type
  ,                                       !- Humidity Condition Day Schedule Name
  1.6,                                    !- Wetbulb or DewPoint at Maximum Dry-Bulb {C}
  ,                                       !- Humidity Ratio at Maximum Dry-Bulb {kgWater/kgDryAir}
  ,                                       !- Enthalpy at Maximum Dry-Bulb {J/kg}
  DefaultMultipliers,                     !- Dry-Bulb Temperature Range Modifier Type
  ,                                       !- Dry-Bulb Temperature Range Modifier Day Schedule Name
  ASHRAEClearSky;                         !- Solar Model Indicator

OS:SizingPeriod:DesignDay,
  {2b722b15-081d-4a3c-ab67-f29e0e74c443}, !- Handle
  Chengdu Ann Clg 1% Condns DB=>MWB,      !- Name
  31.9,                                   !- Maximum Dry-Bulb Temperature {C}
  6.9,                                    !- Daily Dry-Bulb Temperature Range {deltaC}
  95391,                                  !- Barometric Pressure {Pa}
  1.9,                                    !- Wind Speed {m/s}
  200,                                    !- Wind Direction {deg}
  ,                                       !- Sky Clearness
  No,                                     !- Rain Indicator
  No,                                     !- Snow Indicator
  21,                                     !- Day of Month
  7,                                      !- Month
  SummerDesignDay,                        !- Day Type
  No,                                     !- Daylight Saving Time Indicator
  Wetbulb,                                !- Humidity Condition Type
  ,                                       !- Humidity Condition Day Schedule Name
  24.8,                                   !- Wetbulb or DewPoint at Maximum Dry-Bulb {C}
  ,                                       !- Humidity Ratio at Maximum Dry-Bulb {kgWater/kgDryAir}
  ,                                       !- Enthalpy at Maximum Dry-Bulb {J/kg}
  DefaultMultipliers,                     !- Dry-Bulb Temperature Range Modifier Type
  ,                                       !- Dry-Bulb Temperature Range Modifier Day Schedule Name
  ASHRAETau,                              !- Solar Model Indicator
  ,                                       !- Beam Solar Day Schedule Name
  ,                                       !- Diffuse Solar Day Schedule Name
  0.752,                                  !- ASHRAE Clear Sky Optical Depth for Beam Irradiance {dimensionless}
  1.431;                                  !- ASHRAE Clear Sky Optical Depth for Diffuse Irradiance {dimensionless}

OS:SizingPeriod:DesignDay,
  {8ab4ac68-1095-4a3d-84d1-e6adeaed6619}, !- Handle
  Chengdu Ann Clg 1% Condns WB=>MDB,      !- Name
  29.9,                                   !- Maximum Dry-Bulb Temperature {C}
  6.9,                                    !- Daily Dry-Bulb Temperature Range {deltaC}
  95391,                                  !- Barometric Pressure {Pa}
  1.9,                                    !- Wind Speed {m/s}
  200,                                    !- Wind Direction {deg}
  ,                                       !- Sky Clearness
  No,                                     !- Rain Indicator
  No,                                     !- Snow Indicator
  21,                                     !- Day of Month
  7,                                      !- Month
  SummerDesignDay,                        !- Day Type
  No,                                     !- Daylight Saving Time Indicator
  Wetbulb,                                !- Humidity Condition Type
  ,                                       !- Humidity Condition Day Schedule Name
  26.2,                                   !- Wetbulb or DewPoint at Maximum Dry-Bulb {C}
  ,                                       !- Humidity Ratio at Maximum Dry-Bulb {kgWater/kgDryAir}
  ,                                       !- Enthalpy at Maximum Dry-Bulb {J/kg}
  DefaultMultipliers,                     !- Dry-Bulb Temperature Range Modifier Type
  ,                                       !- Dry-Bulb Temperature Range Modifier Day Schedule Name
  ASHRAETau,                              !- Solar Model Indicator
  ,                                       !- Beam Solar Day Schedule Name
  ,                                       !- Diffuse Solar Day Schedule Name
  0.752,                                  !- ASHRAE Clear Sky Optical Depth for Beam Irradiance {dimensionless}
  1.431;                                  !- ASHRAE Clear Sky Optical Depth for Diffuse Irradiance {dimensionless}

OS:Building,
  {11e042f1-3620-4d7b-9b93-f72894c2e8ff}, !- Handle
  Building (A),                           !- Name
  ,                                       !- Building Sector Type
  0,                                      !- North Axis {deg}
  ,                                       !- Nominal Floor to Floor Height {m}
  ,                                       !- Space Type Name
  ,                                       !- Default Construction Set Name
  ;                                       !- Default Schedule Set Name

OS:Construction,
  {fdb748d2-dcb1-428d-ae8d-05f4994363e2}, !- Handle
  Chengdu-Baseline-RoofSlab,              !- Name
  {719e7d6b-938b-436e-83fe-24b8f327b3b4}, !- Surface Rendering Name
  {451eecc4-3820-4d5a-81c1-9c032d2f9822}, !- Layer 1
  {dd26c70e-91a5-44f3-b4e7-41a4e6e46f44}, !- Layer 2
  {f10d2666-586f-48ef-89c5-e7466f434002}; !- Layer 3

OS:Material,
  {451eecc4-3820-4d5a-81c1-9c032d2f9822}, !- Handle
  Built-up Roofing [.375 in][.953 cm],    !- Name
  VeryRough,                              !- Roughness
  0.009525,                               !- Thickness {m}
  0.155736,                               !- Conductivity {W/m-K}
  1121.2917282,                           !- Density {kg/m3}
  1380.72,                                !- Specific Heat {J/kg-K}
  0.9,                                    !- Thermal Absorptance
  0.7,                                    !- Solar Absorptance
  0.7;                                    !- Visible Absorptance

OS:Material,
  {dd26c70e-91a5-44f3-b4e7-41a4e6e46f44}, !- Handle
  Continuous Insulation R-23  [6.693 in][17 cm], !- Name
  MediumSmooth,                           !- Roughness
  0.17,                                   !- Thickness {m}
  0.0922,                                 !- Conductivity {W/m-K}
  256.295204915104,                       !- Density {kg/m3}
  1046,                                   !- Specific Heat {J/kg-K}
  0.9,                                    !- Thermal Absorptance
  0.7,                                    !- Solar Absorptance
  0.7;                                    !- Visible Absorptance

OS:Material,
  {f10d2666-586f-48ef-89c5-e7466f434002}, !- Handle
  Concrete Density 145 lb/ft3 [4.921 in][12.5 cm], !- Name
  MediumRough,                            !- Roughness
  0.125,                                  !- Thickness {m}
  2.30764638774808,                       !- Conductivity {W/m-K}
  3.60569748085638,                       !- Density {kg/m3}
  836.8,                                  !- Specific Heat {J/kg-K}
  0.9,                                    !- Thermal Absorptance
  0.7,                                    !- Solar Absorptance
  0.7;                                    !- Visible Absorptance

OS:Surface,
  {944d9055-771d-4b9e-8421-810bf2600016}, !- Handle
  Space A.F.1.1:Roof A.F.1.1:1,           !- Name
  RoofCeiling,                            !- Surface Type
  {fdb748d2-dcb1-428d-ae8d-05f4994363e2}, !- Construction Name
  {667fed83-a114-4401-8d68-41a5d1fdba6f}, !- Space Name
  Outdoors,                               !- Outside Boundary Condition
  ,                                       !- Outside Boundary Condition Object
  SunExposed,                             !- Sun Exposure
  WindExposed,                            !- Wind Exposure
  ,                                       !- View Factor to Ground
  ,                                       !- Number of Vertices
  50.981996, 136.799203, 18.6955,         !- X,Y,Z Vertex 1 {m}
  50.982402, 191.398796, 18.6955,         !- X,Y,Z Vertex 2 {m}
  44.306601, 172.408296, 18.6955,         !- X,Y,Z Vertex 3 {m}
  44.306, 159.787, 18.6955;               !- X,Y,Z Vertex 4 {m}

OS:ThermalZone,
  {7a08537a-d408-450b-b1b1-9cc7e05c77ee}, !- Handle
  Thermal Zone A.F.1.1,                   !- Name
  1,                                      !- Multiplier
  4.33351385419908,                       !- Ceiling Height {m}
  61178.8222603356,                       !- Volume {m3}
  ,                                       !- Floor Area {m2}
  ,                                       !- Zone Inside Convection Algorithm
  ,                                       !- Zone Outside Convection Algorithm
  ,                                       !- Zone Conditioning Equipment List Name
  {1f08fc9a-7c06-4905-9c3c-ac3f323c14d8}, !- Zone Air Inlet Port List
  {78d34307-5f9c-40f8-9fcc-e6d78974825b}, !- Zone Air Exhaust Port List
  {4760aae8-fc06-46e3-98ce-a0cbed83deff}, !- Zone Air Node Name
  {ad26572e-8769-4991-8c10-ad7b3bdcc0a9}, !- Zone Return Air Port List
  ,                                       !- Primary Daylighting Control Name
  ,                                       !- Fraction of Zone Controlled by Primary Daylighting Control
  ,                                       !- Secondary Daylighting Control Name
  ,                                       !- Fraction of Zone Controlled by Secondary Daylighting Control
  ,                                       !- Illuminance Map Name
  {781f38c4-995c-4742-bc0e-4d28e39c1be1}, !- Group Rendering Name
  {1dfeeae5-835e-409d-9e63-542f0fe42db4}, !- Thermostat Name
  No;                                     !- Use Ideal Air Loads

OS:Node,
  {42143dbb-e80e-4a7c-9d9e-d08a96e361f5}, !- Handle
  Node 1,                                 !- Name
  {4760aae8-fc06-46e3-98ce-a0cbed83deff}, !- Inlet Port
  ;                                       !- Outlet Port

OS:Connection,
  {4760aae8-fc06-46e3-98ce-a0cbed83deff}, !- Handle
  {7a08537a-d408-450b-b1b1-9cc7e05c77ee}, !- Source Object
  11,                                     !- Outlet Port
  {42143dbb-e80e-4a7c-9d9e-d08a96e361f5}, !- Target Object
  2;                                      !- Inlet Port

OS:PortList,
  {1f08fc9a-7c06-4905-9c3c-ac3f323c14d8}, !- Handle
  {7a08537a-d408-450b-b1b1-9cc7e05c77ee}; !- HVAC Component

OS:PortList,
  {78d34307-5f9c-40f8-9fcc-e6d78974825b}, !- Handle
  {7a08537a-d408-450b-b1b1-9cc7e05c77ee}; !- HVAC Component

OS:PortList,
  {ad26572e-8769-4991-8c10-ad7b3bdcc0a9}, !- Handle
  {7a08537a-d408-450b-b1b1-9cc7e05c77ee}; !- HVAC Component

OS:Sizing:Zone,
  {6b5675fc-a865-4c1b-a073-54295ebc9ddd}, !- Handle
  {7a08537a-d408-450b-b1b1-9cc7e05c77ee}, !- Zone or ZoneList Name
  SupplyAirTemperature,                   !- Zone Cooling Design Supply Air Temperature Input Method
  12.7777777777778,                       !- Zone Cooling Design Supply Air Temperature {C}
  11.11,                                  !- Zone Cooling Design Supply Air Temperature Difference {deltaC}
  SupplyAirTemperature,                   !- Zone Heating Design Supply Air Temperature Input Method
  50,                                     !- Zone Heating Design Supply Air Temperature {C}
  11.11,                                  !- Zone Heating Design Supply Air Temperature Difference {deltaC}
  0.0085,                                 !- Zone Cooling Design Supply Air Humidity Ratio {kg-H2O/kg-air}
  0.008,                                  !- Zone Heating Design Supply Air Humidity Ratio {kg-H2O/kg-air}
  ,                                       !- Zone Heating Sizing Factor
  ,                                       !- Zone Cooling Sizing Factor
  DesignDay,                              !- Cooling Design Air Flow Method
  0,                                      !- Cooling Design Air Flow Rate {m3/s}
  0.149999999989632,                      !- Cooling Minimum Air Flow per Zone Floor Area {m3/s-m2}
  0,                                      !- Cooling Minimum Air Flow {m3/s}
  0.2,                                    !- Cooling Minimum Air Flow Fraction
  DesignDay,                              !- Heating Design Air Flow Method
  0,                                      !- Heating Design Air Flow Rate {m3/s}
  0.399999999972352,                      !- Heating Maximum Air Flow per Zone Floor Area {m3/s-m2}
  299.982979109044,                       !- Heating Maximum Air Flow {m3/s}
  0.3,                                    !- Heating Maximum Air Flow Fraction
  No,                                     !- Account for Dedicated Outdoor Air System
  NeutralSupplyAir,                       !- Dedicated Outdoor Air System Control Strategy
  autosize,                               !- Dedicated Outdoor Air Low Setpoint Temperature for Design {C}
  autosize;                               !- Dedicated Outdoor Air High Setpoint Temperature for Design {C}

OS:ZoneHVAC:EquipmentList,
  {627aa005-441f-412e-8825-24875eda3927}, !- Handle
  Zone HVAC Equipment List 1,             !- Name
  {7a08537a-d408-450b-b1b1-9cc7e05c77ee}; !- Thermal Zone

OS:Space,
  {667fed83-a114-4401-8d68-41a5d1fdba6f}, !- Handle
  Thermal Zone A.F.1.1 Space,             !- Name
  {604ecf21-8e08-433a-bb22-7594f06b5cb2}, !- Space Type Name
  ,                                       !- Default Construction Set Name
  ,                                       !- Default Schedule Set Name
  0,                                      !- Direction of Relative North {deg}
  0,                                      !- X Origin {m}
  0,                                      !- Y Origin {m}
  0,                                      !- Z Origin {m}
  ,                                       !- Building Story Name
  {7a08537a-d408-450b-b1b1-9cc7e05c77ee}, !- Thermal Zone Name
  Yes,                                    !- Part of Total Floor Area
  {33a97670-ad25-49e2-bbb3-98492709a9b2}; !- Design Specification Outdoor Air Object Name

OS:ThermostatSetpoint:DualSetpoint,
  {1dfeeae5-835e-409d-9e63-542f0fe42db4}, !- Handle
  Bldg-Office Dual setpoint,              !- Name
  {fd93fa72-8810-430a-be99-67e8aa6cac17}, !- Heating Setpoint Temperature Schedule Name
  {e2025b22-8dfa-4ef6-801d-d51dbf885f07}, !- Cooling Setpoint Temperature Schedule Name
  0;                                      !- Temperature Difference Between Cutout And Setpoint {deltaC}

OS:Schedule:Year,
  {fd93fa72-8810-430a-be99-67e8aa6cac17}, !- Handle
  COMNET C-5 Office-HtgSetPt Sched,       !- Name
  {d56838c0-9e90-401c-8eec-e32bc8bbff4f}, !- Schedule Type Limits Name
  12,                                     !- Month 1
  31,                                     !- Day 1
  {e6813b3e-8e2d-4dda-86fc-229f5ac21020}; !- Week Schedule Until Date 1

OS:ScheduleTypeLimits,
  {d56838c0-9e90-401c-8eec-e32bc8bbff4f}, !- Handle
  Temperature,                            !- Name
  0,                                      !- Lower Limit Value
  200,                                    !- Upper Limit Value
  Continuous,                             !- Numeric Type
  Temperature;                            !- Unit Type

OS:Schedule:Week,
  {e6813b3e-8e2d-4dda-86fc-229f5ac21020}, !- Handle
  COMNET C-5 Office-HtgSetPt Week,        !- Name
  ,                                       !- Schedule Rendering Name
  {98b4327a-f7ad-4399-a288-df9fb987639a}, !- Sunday Schedule:Day Name
  {1f2d1d24-7838-4b33-9c08-aa54f44604ad}, !- Monday Schedule:Day Name
  {1f2d1d24-7838-4b33-9c08-aa54f44604ad}, !- Tuesday Schedule:Day Name
  {1f2d1d24-7838-4b33-9c08-aa54f44604ad}, !- Wednesday Schedule:Day Name
  {1f2d1d24-7838-4b33-9c08-aa54f44604ad}, !- Thursday Schedule:Day Name
  {1f2d1d24-7838-4b33-9c08-aa54f44604ad}, !- Friday Schedule:Day Name
  {cc894aaf-4485-4bf7-a83b-3455b5abd287}, !- Saturday Schedule:Day Name
  {98b4327a-f7ad-4399-a288-df9fb987639a}, !- Holiday Schedule:Day Name
  {98b4327a-f7ad-4399-a288-df9fb987639a}, !- SummerDesignDay Schedule:Day Name
  {1f2d1d24-7838-4b33-9c08-aa54f44604ad}, !- WinterDesignDay Schedule:Day Name
  {98b4327a-f7ad-4399-a288-df9fb987639a}, !- CustomDay1 Schedule:Day Name
  {98b4327a-f7ad-4399-a288-df9fb987639a}; !- CustomDay2 Schedule:Day Name

OS:Schedule:Day,
  {98b4327a-f7ad-4399-a288-df9fb987639a}, !- Handle
  COMNET C-5 Office-HtgSetPt Sun,         !- Name
  {d56838c0-9e90-401c-8eec-e32bc8bbff4f}, !- Schedule Type Limits Name
  ,                                       !- Interpolate to Timestep
  24,                                     !- Hour 1
  0,                                      !- Minute 1
  15.5555555555556;                       !- Value Until Time 1

OS:Schedule:Day,
  {1f2d1d24-7838-4b33-9c08-aa54f44604ad}, !- Handle
  COMNET C-5 Office-HtgSetPt WD,          !- Name
  {d56838c0-9e90-401c-8eec-e32bc8bbff4f}, !- Schedule Type Limits Name
  ,                                       !- Interpolate to Timestep
  5,                                      !- Hour 1
  0,                                      !- Minute 1
  15.5555555555556,                       !- Value Until Time 1
  6,                                      !- Hour 2
  0,                                      !- Minute 2
  17.7777777777778,                       !- Value Until Time 2
  7,                                      !- Hour 3
  0,                                      !- Minute 3
  19.4444444444444,                       !- Value Until Time 3
  22,                                     !- Hour 4
  0,                                      !- Minute 4
  21.1111111111111,                       !- Value Until Time 4
  24,                                     !- Hour 5
  0,                                      !- Minute 5
  15.5555555555556;                       !- Value Until Time 5

OS:Schedule:Day,
  {cc894aaf-4485-4bf7-a83b-3455b5abd287}, !- Handle
  COMNET C-5 Office-HtgSetPt Sat,         !- Name
  {d56838c0-9e90-401c-8eec-e32bc8bbff4f}, !- Schedule Type Limits Name
  ,                                       !- Interpolate to Timestep
  5,                                      !- Hour 1
  0,                                      !- Minute 1
  15.5555555555556,                       !- Value Until Time 1
  6,                                      !- Hour 2
  0,                                      !- Minute 2
  17.7777777777778,                       !- Value Until Time 2
  7,                                      !- Hour 3
  0,                                      !- Minute 3
  19.4444444444444,                       !- Value Until Time 3
  17,                                     !- Hour 4
  0,                                      !- Minute 4
  21.1111111111111,                       !- Value Until Time 4
  24,                                     !- Hour 5
  0,                                      !- Minute 5
  15.5555555555556;                       !- Value Until Time 5

OS:YearDescription,
  {ba67e557-d5d7-442d-a79c-b3efb80c2127}, !- Handle
  2022,                                   !- Calendar Year
  ,                                       !- Day of Week for Start Day
  ;                                       !- Is Leap Year

OS:Schedule:Year,
  {e2025b22-8dfa-4ef6-801d-d51dbf885f07}, !- Handle
  COMNET C-5 Office-ClgSetPt Sched,       !- Name
  {d56838c0-9e90-401c-8eec-e32bc8bbff4f}, !- Schedule Type Limits Name
  12,                                     !- Month 1
  31,                                     !- Day 1
  {d96f9b6f-6458-4270-ab21-baf52234630e}; !- Week Schedule Until Date 1

OS:Schedule:Week,
  {d96f9b6f-6458-4270-ab21-baf52234630e}, !- Handle
  COMNET C-5 Office-ClgSetPt Week,        !- Name
  ,                                       !- Schedule Rendering Name
  {93272483-35d3-4ada-8394-be20220b05c0}, !- Sunday Schedule:Day Name
  {60cf3cde-a97a-4a10-981c-70f53ba68f9f}, !- Monday Schedule:Day Name
  {60cf3cde-a97a-4a10-981c-70f53ba68f9f}, !- Tuesday Schedule:Day Name
  {60cf3cde-a97a-4a10-981c-70f53ba68f9f}, !- Wednesday Schedule:Day Name
  {60cf3cde-a97a-4a10-981c-70f53ba68f9f}, !- Thursday Schedule:Day Name
  {60cf3cde-a97a-4a10-981c-70f53ba68f9f}, !- Friday Schedule:Day Name
  {c16e2774-853f-4261-a2ff-bd707016cd73}, !- Saturday Schedule:Day Name
  {93272483-35d3-4ada-8394-be20220b05c0}, !- Holiday Schedule:Day Name
  {60cf3cde-a97a-4a10-981c-70f53ba68f9f}, !- SummerDesignDay Schedule:Day Name
  {93272483-35d3-4ada-8394-be20220b05c0}, !- WinterDesignDay Schedule:Day Name
  {93272483-35d3-4ada-8394-be20220b05c0}, !- CustomDay1 Schedule:Day Name
  {93272483-35d3-4ada-8394-be20220b05c0}; !- CustomDay2 Schedule:Day Name

OS:Schedule:Day,
  {93272483-35d3-4ada-8394-be20220b05c0}, !- Handle
  COMNET C-5 Office-ClgSetPt Sun,         !- Name
  {d56838c0-9e90-401c-8eec-e32bc8bbff4f}, !- Schedule Type Limits Name
  ,                                       !- Interpolate to Timestep
  24,                                     !- Hour 1
  0,                                      !- Minute 1
  26.6666666666667;                       !- Value Until Time 1

OS:Schedule:Day,
  {60cf3cde-a97a-4a10-981c-70f53ba68f9f}, !- Handle
  COMNET C-5 Office-ClgSetPt WD,          !- Name
  {d56838c0-9e90-401c-8eec-e32bc8bbff4f}, !- Schedule Type Limits Name
  ,                                       !- Interpolate to Timestep
  5,                                      !- Hour 1
  0,                                      !- Minute 1
  26.6666666666667,                       !- Value Until Time 1
  6,                                      !- Hour 2
  0,                                      !- Minute 2
  25.5555555555556,                       !- Value Until Time 2
  7,                                      !- Hour 3
  0,                                      !- Minute 3
  25,                                     !- Value Until Time 3
  22,                                     !- Hour 4
  0,                                      !- Minute 4
  23.8888888888889,                       !- Value Until Time 4
  24,                                     !- Hour 5
  0,                                      !- Minute 5
  26.6666666666667;                       !- Value Until Time 5

OS:Schedule:Day,
  {c16e2774-853f-4261-a2ff-bd707016cd73}, !- Handle
  COMNET C-5 Office-ClgSetPt Sat,         !- Name
  {d56838c0-9e90-401c-8eec-e32bc8bbff4f}, !- Schedule Type Limits Name
  ,                                       !- Interpolate to Timestep
  5,                                      !- Hour 1
  0,                                      !- Minute 1
  26.6666666666667,                       !- Value Until Time 1
  6,                                      !- Hour 2
  0,                                      !- Minute 2
  25.5555555555556,                       !- Value Until Time 2
  7,                                      !- Hour 3
  0,                                      !- Minute 3
  25,                                     !- Value Until Time 3
  17,                                     !- Hour 4
  0,                                      !- Minute 4
  23.8888888888889,                       !- Value Until Time 4
  24,                                     !- Hour 5
  0,                                      !- Minute 5
  26.6666666666667;                       !- Value Until Time 5

OS:Surface,
  {ffa20d60-5f7c-439a-b827-95938c0dd7b1}, !- Handle
  Space A.F.1.1:Roof A.F.1.1:2,           !- Name
  RoofCeiling,                            !- Surface Type
  {fdb748d2-dcb1-428d-ae8d-05f4994363e2}, !- Construction Name
  {667fed83-a114-4401-8d68-41a5d1fdba6f}, !- Space Name
  Outdoors,                               !- Outside Boundary Condition
  ,                                       !- Outside Boundary Condition Object
  SunExposed,                             !- Sun Exposure
  WindExposed,                            !- Wind Exposure
  ,                                       !- View Factor to Ground
  ,                                       !- Number of Vertices
  50.981996, 136.799203, 18.6955,         !- X,Y,Z Vertex 1 {m}
  44.306, 159.787, 18.6955,               !- X,Y,Z Vertex 2 {m}
  31.677998, 159.787, 18.6955,            !- X,Y,Z Vertex 3 {m}
  19.893001, 136.799203, 18.6955;         !- X,Y,Z Vertex 4 {m}

OS:Surface,
  {f2d07f3f-8470-4fd0-a439-b64244dde373}, !- Handle
  Space A.F.1.1:Roof A.F.1.1:3,           !- Name
  RoofCeiling,                            !- Surface Type
  {fdb748d2-dcb1-428d-ae8d-05f4994363e2}, !- Construction Name
  {667fed83-a114-4401-8d68-41a5d1fdba6f}, !- Space Name
  Outdoors,                               !- Outside Boundary Condition
  ,                                       !- Outside Boundary Condition Object
  SunExposed,                             !- Sun Exposure
  WindExposed,                            !- Wind Exposure
  ,                                       !- View Factor to Ground
  ,                                       !- Number of Vertices
  95.853, 29.7493, 18.6955,               !- X,Y,Z Vertex 1 {m}
  95.853, 82.846, 18.6955,                !- X,Y,Z Vertex 2 {m}
  93.056804, 65.431101, 18.6955,          !- X,Y,Z Vertex 3 {m}
  93.056, 47.544, 18.6955;                !- X,Y,Z Vertex 4 {m}

OS:Surface,
  {7d9393c6-b09e-49eb-bf62-27d23c40e67f}, !- Handle
  Space A.F.1.1:Roof A.F.1.1:4,           !- Name
  RoofCeiling,                            !- Surface Type
  {fdb748d2-dcb1-428d-ae8d-05f4994363e2}, !- Construction Name
  {667fed83-a114-4401-8d68-41a5d1fdba6f}, !- Space Name
  Outdoors,                               !- Outside Boundary Condition
  ,                                       !- Outside Boundary Condition Object
  SunExposed,                             !- Sun Exposure
  WindExposed,                            !- Wind Exposure
  ,                                       !- View Factor to Ground
  ,                                       !- Number of Vertices
  95.853, 29.7493, 18.6955,               !- X,Y,Z Vertex 1 {m}
  93.056, 47.544, 18.6955,                !- X,Y,Z Vertex 2 {m}
  67.332, 47.544, 18.6955,                !- X,Y,Z Vertex 3 {m}
  67.332, 29.7493, 18.6955;               !- X,Y,Z Vertex 4 {m}

OS:Surface,
  {489fad87-0fc4-4f0b-b39a-4c65d0b10e82}, !- Handle
  Space A.F.1.1:Roof A.F.1.1:5,           !- Name
  RoofCeiling,                            !- Surface Type
  {fdb748d2-dcb1-428d-ae8d-05f4994363e2}, !- Construction Name
  {667fed83-a114-4401-8d68-41a5d1fdba6f}, !- Space Name
  Outdoors,                               !- Outside Boundary Condition
  ,                                       !- Outside Boundary Condition Object
  SunExposed,                             !- Sun Exposure
  WindExposed,                            !- Wind Exposure
  ,                                       !- View Factor to Ground
  ,                                       !- Number of Vertices
  138.321, 223.88, 18.6955,               !- X,Y,Z Vertex 1 {m}
  139.952, 225.508, 18.6955,              !- X,Y,Z Vertex 2 {m}
  19.893001, 225.508, 18.6955,            !- X,Y,Z Vertex 3 {m}
  69.81, 223.88, 18.6955;                 !- X,Y,Z Vertex 4 {m}

OS:Surface,
  {587a3435-e7bf-4801-a49b-9c6f025ab644}, !- Handle
  Space A.F.1.1:Roof A.F.1.1:6,           !- Name
  RoofCeiling,                            !- Surface Type
  {fdb748d2-dcb1-428d-ae8d-05f4994363e2}, !- Construction Name
  {667fed83-a114-4401-8d68-41a5d1fdba6f}, !- Space Name
  Outdoors,                               !- Outside Boundary Condition
  ,                                       !- Outside Boundary Condition Object