
OS:Version,
  {e2190a61-e3f3-4d4b-8c0b-7a9c2342180e}, !- Handle
  3.6.1;                                  !- Version Identifier

