
OS:Version,
  {0a1ea05c-03bb-4db1-90b8-7e1a34805402}, !- Handle
  3.1.0;                                  !- Version Identifier

OS:Building,
  {9b1c6b09-b145-42d6-ba0e-8839ac9c0d01}, !- Handle
  Building 1,                             !- Name
  ,                                       !- Building Sector Type
  -0,                                     !- North Axis {deg}
  ,                                       !- Nominal Floor to Floor Height {m}
  ,                                       !- Space Type Name
  ,                                       !- Default Construction Set Name
  ;                                       !- Default Schedule Set Name

OS:Facility,
  {53a00e86-e9ba-49a1-a391-af42272b9338}; !- Handle

OS:Site,
  {35cda17e-608c-4982-aed3-bcfda3c7a848}, !- Handle
  Site 1,                                 !- Name
  ,                                       !- Latitude {deg}
  ,                                       !- Longitude {deg}
  ,                                       !- Time Zone {hr}
  ,                                       !- Elevation {m}
  ;                                       !- Terrain

OS:SimulationControl,
  {2849995f-58f6-47e9-b07d-5a5ecc39de45}; !- Handle

OS:Sizing:Parameters,
  {93957171-83a9-47de-8f68-ed5cefff4e53}, !- Handle
  1.25,                                   !- Heating Sizing Factor
  1.15;                                   !- Cooling Sizing Factor

OS:Timestep,
  {58a9ec41-bf09-485b-98cc-43545675280e}, !- Handle
  6;                                      !- Number of Timesteps per Hour

OS:ShadowCalculation,
  {0f807c64-734b-489a-afe8-767d941e5bfb}, !- Handle
  PolygonClipping,                        !- Shading Calculation Method
  ,                                       !- Shading Calculation Update Frequency Method
  20,                                     !- Shading Calculation Update Frequency
  15000,                                  !- Maximum Figures in Shadow Overlap Calculations
  ,                                       !- Polygon Clipping Algorithm
  512,                                    !- Pixel Counting Resolution
  ,                                       !- Sky Diffuse Modeling Algorithm
  No,                                     !- Output External Shading Calculation Results
  No,                                     !- Disable Self-Shading Within Shading Zone Groups
  No;                                     !- Disable Self-Shading From Shading Zone Groups to Other Zones

OS:HeatBalanceAlgorithm,
  {c3e46519-156f-4263-816b-65fad93fb3f3}, !- Handle
  ConductionTransferFunction,             !- Algorithm
  200;                                    !- Surface Temperature Upper Limit {C}

OS:RunPeriod,
  {7bdc7cdd-f2bd-4561-acee-d6489faa9c1d}, !- Handle
  Run Period 1,                           !- Name
  1,                                      !- Begin Month
  1,                                      !- Begin Day of Month
  12,                                     !- End Month
  31,                                     !- End Day of Month
  ,                                       !- Use Weather File Holidays and Special Days
  ,                                       !- Use Weather File Daylight Saving Period
  ,                                       !- Apply Weekend Holiday Rule
  ,                                       !- Use Weather File Rain Indicators
  ,                                       !- Use Weather File Snow Indicators
  ;                                       !- Number of Times Runperiod to be Repeated

OS:LifeCycleCost:Parameters,
  {288ce583-4bff-4bf6-ab38-42130c5d3bec}, !- Handle
  ,                                       !- Analysis Type
  ,                                       !- Discounting Convention
  ,                                       !- Inflation Approach
  ,                                       !- Real Discount Rate
  ,                                       !- Nominal Discount Rate
  ,                                       !- Inflation
  ,                                       !- Base Date Month
  ,                                       !- Base Date Year
  ,                                       !- Service Date Month
  ,                                       !- Service Date Year
  ;                                       !- Length of Study Period in Years

OS:Space,
  {fb5693c4-ccef-4a59-9d2b-2554bdd4822a}, !- Handle
  Artroom 103,                            !- Name
  {cda6e823-0e1f-4a0f-978d-dd5e7509b64b}, !- Space Type Name
  ,                                       !- Default Construction Set Name
  ,                                       !- Default Schedule Set Name
  ,                                       !- Direction of Relative North {deg}
  ,                                       !- X Origin {m}
  ,                                       !- Y Origin {m}
  ,                                       !- Z Origin {m}
  {22c29aca-d8ce-4854-ae66-9d00b1744310}; !- Building Story Name

OS:Space,
  {4584d58a-6658-45a7-abf1-5a0d39cd5aaa}, !- Handle
  Bathroom 115,                           !- Name
  {03862df2-c341-4d8a-b256-afc9d3745944}, !- Space Type Name
  ,                                       !- Default Construction Set Name
  ,                                       !- Default Schedule Set Name
  ,                                       !- Direction of Relative North {deg}
  ,                                       !- X Origin {m}
  ,                                       !- Y Origin {m}
  ,                                       !- Z Origin {m}
  {22c29aca-d8ce-4854-ae66-9d00b1744310}; !- Building Story Name

OS:Space,
  {7fc4d4a5-0cf8-4bf8-945d-331c925c9eef}, !- Handle
  Bathroom 202,                           !- Name
  {03862df2-c341-4d8a-b256-afc9d3745944}, !- Space Type Name
  ,                                       !- Default Construction Set Name
  ,                                       !- Default Schedule Set Name
  ,                                       !- Direction of Relative North {deg}
  ,                                       !- X Origin {m}
  ,                                       !- Y Origin {m}
  ,                                       !- Z Origin {m}
  {e8ac735e-2b1f-41d6-a392-face3484e713}; !- Building Story Name

OS:Space,
  {bc1502e2-315d-4584-8b93-79b329935158}, !- Handle
  Cafeteria 120,                          !- Name
  {2a756e31-c6fc-484b-8c2f-687ba70d522e}, !- Space Type Name
  ,                                       !- Default Construction Set Name
  ,                                       !- Default Schedule Set Name
  ,                                       !- Direction of Relative North {deg}
  ,                                       !- X Origin {m}
  ,                                       !- Y Origin {m}
  ,                                       !- Z Origin {m}
  {22c29aca-d8ce-4854-ae66-9d00b1744310}; !- Building Story Name

OS:Space,
  {4a644715-6dd5-416f-a58a-495ad2d707f9}, !- Handle
  Classroom 101,                          !- Name
  {7be613a0-89f8-4ba3-9dc2-b4fed9de3a0c}, !- Space Type Name
  ,                                       !- Default Construction Set Name
  ,                                       !- Default Schedule Set Name
  ,                                       !- Direction of Relative North {deg}
  ,                                       !- X Origin {m}
  ,                                       !- Y Origin {m}
  ,                                       !- Z Origin {m}
  {22c29aca-d8ce-4854-ae66-9d00b1744310}; !- Building Story Name

OS:Space,
  {c5938e54-11dc-4f6d-ab02-ea1f404eb671}, !- Handle
  Classroom 102,                          !- Name
  {7be613a0-89f8-4ba3-9dc2-b4fed9de3a0c}, !- Space Type Name
  ,                                       !- Default Construction Set Name
  ,                                       !- Default Schedule Set Name
  ,                                       !- Direction of Relative North {deg}
  ,                                       !- X Origin {m}
  ,                                       !- Y Origin {m}
  ,                                       !- Z Origin {m}
  {22c29aca-d8ce-4854-ae66-9d00b1744310}; !- Building Story Name

OS:Space,
  {730bd4ca-b682-408a-b4e3-a20c27afa280}, !- Handle
  Classroom 105,                          !- Name
  {7be613a0-89f8-4ba3-9dc2-b4fed9de3a0c}, !- Space Type Name
  ,                                       !- Default Construction Set Name
  ,                                       !- Default Schedule Set Name
  ,                                       !- Direction of Relative North {deg}
  ,                                       !- X Origin {m}
  ,                                       !- Y Origin {m}
  ,                                       !- Z Origin {m}
  {22c29aca-d8ce-4854-ae66-9d00b1744310}; !- Building Story Name

OS:Space,
  {c9f1e338-128d-4a7d-b4b1-38ceedda648f}, !- Handle
  Classroom 106,                          !- Name
  {7be613a0-89f8-4ba3-9dc2-b4fed9de3a0c}, !- Space Type Name
  ,                                       !- Default Construction Set Name
  ,                                       !- Default Schedule Set Name
  ,                                       !- Direction of Relative North {deg}
  ,                                       !- X Origin {m}
  ,                                       !- Y Origin {m}
  ,                                       !- Z Origin {m}
  {22c29aca-d8ce-4854-ae66-9d00b1744310}; !- Building Story Name

OS:Space,
  {acb7ada1-900f-4004-93ff-e0461f7dc0bc}, !- Handle
  Classroom 108,                          !- Name
  {7be613a0-89f8-4ba3-9dc2-b4fed9de3a0c}, !- Space Type Name
  ,                                       !- Default Construction Set Name
  ,                                       !- Default Schedule Set Name
  ,                                       !- Direction of Relative North {deg}
  ,                                       !- X Origin {m}
  ,                                       !- Y Origin {m}
  ,                                       !- Z Origin {m}
  {22c29aca-d8ce-4854-ae66-9d00b1744310}; !- Building Story Name

OS:Space,
  {b213c5be-fcba-4a5e-979c-a3d793b46bb9}, !- Handle
  Classroom 109,                          !- Name
  {7be613a0-89f8-4ba3-9dc2-b4fed9de3a0c}, !- Space Type Name
  ,                                       !- Default Construction Set Name
  ,                                       !- Default Schedule Set Name
  ,                                       !- Direction of Relative North {deg}
  ,                                       !- X Origin {m}
  ,                                       !- Y Origin {m}
  ,                                       !- Z Origin {m}
  {22c29aca-d8ce-4854-ae66-9d00b1744310}; !- Building Story Name

OS:Space,
  {ce9f8c7b-4326-4f44-8980-769d8d0c280d}, !- Handle
  Classroom 111,                          !- Name
  {7be613a0-89f8-4ba3-9dc2-b4fed9de3a0c}, !- Space Type Name
  ,                                       !- Default Construction Set Name
  ,                                       !- Default Schedule Set Name
  ,                                       !- Direction of Relative North {deg}
  ,                                       !- X Origin {m}
  ,                                       !- Y Origin {m}
  ,                                       !- Z Origin {m}
  {22c29aca-d8ce-4854-ae66-9d00b1744310}; !- Building Story Name

OS:Space,
  {c150e6a7-853c-421d-ac50-33f3084578a2}, !- Handle
  Classroom 112,                          !- Name
  {7be613a0-89f8-4ba3-9dc2-b4fed9de3a0c}, !- Space Type Name
  ,                                       !- Default Construction Set Name
  ,                                       !- Default Schedule Set Name
  ,                                       !- Direction of Relative North {deg}
  ,                                       !- X Origin {m}
  ,                                       !- Y Origin {m}
  ,                                       !- Z Origin {m}
  {22c29aca-d8ce-4854-ae66-9d00b1744310}; !- Building Story Name

OS:Space,
  {da69d8a4-b9dd-469f-a261-7e05234f1ab3}, !- Handle
  Classroom 204,                          !- Name
  {7be613a0-89f8-4ba3-9dc2-b4fed9de3a0c}, !- Space Type Name
  ,                                       !- Default Construction Set Name
  ,                                       !- Default Schedule Set Name
  ,                                       !- Direction of Relative North {deg}
  ,                                       !- X Origin {m}
  ,                                       !- Y Origin {m}
  ,                                       !- Z Origin {m}
  {e8ac735e-2b1f-41d6-a392-face3484e713}; !- Building Story Name

OS:Space,
  {de1431c9-ec0d-4928-b5b2-a8fc981fe0e4}, !- Handle
  Classroom 205,                          !- Name
  {7be613a0-89f8-4ba3-9dc2-b4fed9de3a0c}, !- Space Type Name
  ,                                       !- Default Construction Set Name
  ,                                       !- Default Schedule Set Name
  ,                                       !- Direction of Relative North {deg}
  ,                                       !- X Origin {m}
  ,                                       !- Y Origin {m}
  ,                                       !- Z Origin {m}
  {e8ac735e-2b1f-41d6-a392-face3484e713}; !- Building Story Name

OS:Space,
  {996b94f5-fffe-45ed-b29f-cece090827e4}, !- Handle
  Classroom 206,                          !- Name
  {7be613a0-89f8-4ba3-9dc2-b4fed9de3a0c}, !- Space Type Name
  ,                                       !- Default Construction Set Name
  ,                                       !- Default Schedule Set Name
  ,                                       !- Direction of Relative North {deg}
  ,                                       !- X Origin {m}
  ,                                       !- Y Origin {m}
  ,                                       !- Z Origin {m}
  {e8ac735e-2b1f-41d6-a392-face3484e713}; !- Building Story Name

OS:Space,
  {085a1a8c-02b3-4400-addf-6e12cf786637}, !- Handle
  Classroom 207,                          !- Name
  {7be613a0-89f8-4ba3-9dc2-b4fed9de3a0c}, !- Space Type Name
  ,                                       !- Default Construction Set Name
  ,                                       !- Default Schedule Set Name
  ,                                       !- Direction of Relative North {deg}
  ,                                       !- X Origin {m}
  ,                                       !- Y Origin {m}
  ,                                       !- Z Origin {m}
  {e8ac735e-2b1f-41d6-a392-face3484e713}; !- Building Story Name

OS:Space,
  {3ed80871-2ad5-440b-8c74-077a1b575d6e}, !- Handle
  Classroom 208,                          !- Name
  {7be613a0-89f8-4ba3-9dc2-b4fed9de3a0c}, !- Space Type Name
  ,                                       !- Default Construction Set Name
  ,                                       !- Default Schedule Set Name
  ,                                       !- Direction of Relative North {deg}
  ,                                       !- X Origin {m}
  ,                                       !- Y Origin {m}
  ,                                       !- Z Origin {m}
  {e8ac735e-2b1f-41d6-a392-face3484e713}; !- Building Story Name

OS:Space,
  {b1b4ca37-194a-42a3-a223-8caac4777aa4}, !- Handle
  Classroom 210,                          !- Name
  {7be613a0-89f8-4ba3-9dc2-b4fed9de3a0c}, !- Space Type Name
  ,                                       !- Default Construction Set Name
  ,                                       !- Default Schedule Set Name
  ,                                       !- Direction of Relative North {deg}
  ,                                       !- X Origin {m}
  ,                                       !- Y Origin {m}
  ,                                       !- Z Origin {m}
  {e8ac735e-2b1f-41d6-a392-face3484e713}; !- Building Story Name

OS:Space,
  {574f0a11-edf1-4d9d-86c1-145bdf294fad}, !- Handle
  Classroom 211,                          !- Name
  {7be613a0-89f8-4ba3-9dc2-b4fed9de3a0c}, !- Space Type Name
  ,                                       !- Default Construction Set Name
  ,                                       !- Default Schedule Set Name
  ,                                       !- Direction of Relative North {deg}
  ,                                       !- X Origin {m}
  ,                                       !- Y Origin {m}
  ,                                       !- Z Origin {m}
  {e8ac735e-2b1f-41d6-a392-face3484e713}; !- Building Story Name

OS:Space,
  {3a7a892d-4458-414d-9245-0f43c82e273b}, !- Handle
  Classroom 213,                          !- Name
  {7be613a0-89f8-4ba3-9dc2-b4fed9de3a0c}, !- Space Type Name
  ,                                       !- Default Construction Set Name
  ,                                       !- Default Schedule Set Name
  ,                                       !- Direction of Relative North {deg}
  ,                                       !- X Origin {m}
  ,                                       !- Y Origin {m}
  ,                                       !- Z Origin {m}
  {e8ac735e-2b1f-41d6-a392-face3484e713}; !- Building Story Name

OS:Space,
  {40d8389d-10b1-4ae9-b407-cd1d7c08088d}, !- Handle
  Corridor 104,                           !- Name
  {3420dc34-2877-4c98-bc42-1fa189073936}, !- Space Type Name
  ,                                       !- Default Construction Set Name
  ,                                       !- Default Schedule Set Name
  ,                                       !- Direction of Relative North {deg}
  ,                                       !- X Origin {m}
  ,                                       !- Y Origin {m}
  ,                                       !- Z Origin {m}
  {22c29aca-d8ce-4854-ae66-9d00b1744310}; !- Building Story Name

OS:Space,
  {d485c646-8a61-41cd-a9fb-6abc601cb77f}, !- Handle
  Corridor 107,                           !- Name
  {3420dc34-2877-4c98-bc42-1fa189073936}, !- Space Type Name
  ,                                       !- Default Construction Set Name
  ,                                       !- Default Schedule Set Name
  ,                                       !- Direction of Relative North {deg}
  ,                                       !- X Origin {m}
  ,                                       !- Y Origin {m}
  ,                                       !- Z Origin {m}
  {22c29aca-d8ce-4854-ae66-9d00b1744310}; !- Building Story Name

OS:Space,
  {5b45888f-dd6f-4eab-aa43-8b8e73cddc77}, !- Handle
  Corridor 110,                           !- Name
  {3420dc34-2877-4c98-bc42-1fa189073936}, !- Space Type Name
  ,                                       !- Default Construction Set Name
  ,                                       !- Default Schedule Set Name
  ,                                       !- Direction of Relative North {deg}
  ,                                       !- X Origin {m}
  ,                                       !- Y Origin {m}
  ,                                       !- Z Origin {m}
  {22c29aca-d8ce-4854-ae66-9d00b1744310}; !- Building Story Name

OS:Space,
  {57950fdc-f046-4ebf-9017-18d43a56b53b}, !- Handle
  Corridor 209,                           !- Name
  {3420dc34-2877-4c98-bc42-1fa189073936}, !- Space Type Name
  ,                                       !- Default Construction Set Name
  ,                                       !- Default Schedule Set Name
  ,                                       !- Direction of Relative North {deg}
  ,                                       !- X Origin {m}
  ,                                       !- Y Origin {m}
  ,                                       !- Z Origin {m}
  {e8ac735e-2b1f-41d6-a392-face3484e713}; !- Building Story Name

OS:Space,
  {e5472978-1634-4a26-b00f-6bfeafc09742}, !- Handle
  Corridor 212,                           !- Name
  {3420dc34-2877-4c98-bc42-1fa189073936}, !- Space Type Name
  ,                                       !- Default Construction Set Name
  ,                                       !- Default Schedule Set Name
  ,                                       !- Direction of Relative North {deg}
  ,                                       !- X Origin {m}
  ,                                       !- Y Origin {m}
  ,                                       !- Z Origin {m}
  {e8ac735e-2b1f-41d6-a392-face3484e713}; !- Building Story Name

OS:Space,
  {c8ab8df7-f143-4fa5-b076-9be58c163ef8}, !- Handle
  Gym 118,                                !- Name
  {a04a7b32-fcb8-48bf-bc87-6cd0d8016860}, !- Space Type Name
  ,                                       !- Default Construction Set Name
  ,                                       !- Default Schedule Set Name
  ,                                       !- Direction of Relative North {deg}
  ,                                       !- X Origin {m}
  ,                                       !- Y Origin {m}
  ,                                       !- Z Origin {m}
  {22c29aca-d8ce-4854-ae66-9d00b1744310}; !- Building Story Name

OS:Space,
  {3018167e-6f21-423a-bed9-d18a53c1bb21}, !- Handle
  Kitchen 119,                            !- Name
  {e97561e1-5b9f-4721-8b75-2ec733f9abc8}, !- Space Type Name
  ,                                       !- Default Construction Set Name
  ,                                       !- Default Schedule Set Name
  ,                                       !- Direction of Relative North {deg}
  ,                                       !- X Origin {m}
  ,                                       !- Y Origin {m}
  ,                                       !- Z Origin {m}
  {22c29aca-d8ce-4854-ae66-9d00b1744310}; !- Building Story Name

OS:Space,
  {667ef16b-9a7c-453b-be8d-c2138e0d9202}, !- Handle
  Lobby 113,                              !- Name
  {16921b54-db04-48ff-a520-f0ba36d504f2}, !- Space Type Name
  ,                                       !- Default Construction Set Name
  ,                                       !- Default Schedule Set Name
  ,                                       !- Direction of Relative North {deg}
  ,                                       !- X Origin {m}
  ,                                       !- Y Origin {m}
  ,                                       !- Z Origin {m}
  {22c29aca-d8ce-4854-ae66-9d00b1744310}; !- Building Story Name

OS:Space,
  {11f39f07-0097-4dd9-9765-1fbb333a1f2d}, !- Handle
  Lobby 203,                              !- Name
  {16921b54-db04-48ff-a520-f0ba36d504f2}, !- Space Type Name
  ,                                       !- Default Construction Set Name
  ,                                       !- Default Schedule Set Name
  ,                                       !- Direction of Relative North {deg}
  ,                                       !- X Origin {m}
  ,                                       !- Y Origin {m}
  ,                                       !- Z Origin {m}
  {e8ac735e-2b1f-41d6-a392-face3484e713}; !- Building Story Name

OS:Space,
  {221cb8f4-88e5-466b-ad48-9af9a195c52a}, !- Handle
  Mechanical 114,                         !- Name
  {4da2245b-b0dd-47e2-8708-09cba3ee8297}, !- Space Type Name
  ,                                       !- Default Construction Set Name
  ,                                       !- Default Schedule Set Name
  ,                                       !- Direction of Relative North {deg}
  ,                                       !- X Origin {m}
  ,                                       !- Y Origin {m}
  ,                                       !- Z Origin {m}
  {22c29aca-d8ce-4854-ae66-9d00b1744310}; !- Building Story Name

OS:Space,
  {c47ee563-08c9-4b39-bb19-e37e1e81189e}, !- Handle
  Media Center 116,                       !- Name
  {607600ce-4834-4dcd-98ef-9a466987f4e8}, !- Space Type Name
  ,                                       !- Default Construction Set Name
  ,                                       !- Default Schedule Set Name
  ,                                       !- Direction of Relative North {deg}
  ,                                       !- X Origin {m}
  ,                                       !- Y Origin {m}
  ,                                       !- Z Origin {m}
  {22c29aca-d8ce-4854-ae66-9d00b1744310}; !- Building Story Name

OS:Space,
  {42453d1e-1de6-4cab-94e2-443c20a0f30f}, !- Handle
  Offices 117,                            !- Name
  {b3169b63-62f9-410b-a230-009e54a55740}, !- Space Type Name
  ,                                       !- Default Construction Set Name
  ,                                       !- Default Schedule Set Name
  ,                                       !- Direction of Relative North {deg}
  ,                                       !- X Origin {m}
  ,                                       !- Y Origin {m}
  ,                                       !- Z Origin {m}
  {22c29aca-d8ce-4854-ae66-9d00b1744310}; !- Building Story Name

OS:Space,
  {f05c3438-b62d-47a6-b3cc-432cacd4c197}, !- Handle
  Space 2 - 1,                            !- Name
  ,                                       !- Space Type Name
  ,                                       !- Default Construction Set Name
  ,                                       !- Default Schedule Set Name
  ,                                       !- Direction of Relative North {deg}
  ,                                       !- X Origin {m}
  ,                                       !- Y Origin {m}
  ,                                       !- Z Origin {m}
  {e8ac735e-2b1f-41d6-a392-face3484e713}; !- Building Story Name

OS:SpaceType,
  {cda6e823-0e1f-4a0f-978d-dd5e7509b64b}, !- Handle
  Art_Class;                              !- Name

OS:SpaceType,
  {03862df2-c341-4d8a-b256-afc9d3745944}, !- Handle
  Bathrooms;                              !- Name

OS:SpaceType,
  {2a756e31-c6fc-484b-8c2f-687ba70d522e}, !- Handle
  Cafeteria;                              !- Name

OS:SpaceType,
  {7be613a0-89f8-4ba3-9dc2-b4fed9de3a0c}, !- Handle
  Classroom;                              !- Name

OS:SpaceType,
  {3420dc34-2877-4c98-bc42-1fa189073936}, !- Handle
  Corridor;                               !- Name

OS:SpaceType,
  {a04a7b32-fcb8-48bf-bc87-6cd0d8016860}, !- Handle
  Gym;                                    !- Name

OS:SpaceType,
  {e97561e1-5b9f-4721-8b75-2ec733f9abc8}, !- Handle
  Kitchen;                                !- Name

OS:SpaceType,
  {16921b54-db04-48ff-a520-f0ba36d504f2}, !- Handle
  Lobby;                                  !- Name

OS:SpaceType,
  {4da2245b-b0dd-47e2-8708-09cba3ee8297}, !- Handle
  Mech;                                   !- Name

OS:SpaceType,
  {607600ce-4834-4dcd-98ef-9a466987f4e8}, !- Handle
  Media_Center;                           !- Name

OS:SpaceType,
  {b3169b63-62f9-410b-a230-009e54a55740}, !- Handle
  Offices;                                !- Name

OS:BuildingStory,
  {22c29aca-d8ce-4854-ae66-9d00b1744310}, !- Handle
  Story 1,                                !- Name
  0,                                      !- Nominal Z Coordinate {m}
  13.125,                                 !- Nominal Floor to Floor Height {m}
  ,                                       !- Default Construction Set Name
  ,                                       !- Default Schedule Set Name
  ,                                       !- Group Rendering Name
  13.125;                                 !- Nominal Floor to Ceiling Height {m}

OS:BuildingStory,
  {e8ac735e-2b1f-41d6-a392-face3484e713}, !- Handle
  Story 2,                                !- Name
  13.125,                                 !- Nominal Z Coordinate {m}
  13.125,                                 !- Nominal Floor to Floor Height {m}
  ,                                       !- Default Construction Set Name
  ,                                       !- Default Schedule Set Name
  ,                                       !- Group Rendering Name
  13.125;                                 !- Nominal Floor to Ceiling Height {m}

OS:DefaultConstructionSet,
  {4d643e24-9efa-4ffd-96c4-b1a6b2be91b2}, !- Handle
  Default Construction Set 1,             !- Name
  ,                                       !- Default Exterior Surface Constructions Name
  ,                                       !- Default Interior Surface Constructions Name
  ,                                       !- Default Ground Contact Surface Constructions Name
  ,                                       !- Default Exterior SubSurface Constructions Name
  ,                                       !- Default Interior SubSurface Constructions Name
  ,                                       !- Interior Partition Construction Name
  ,                                       !- Space Shading Construction Name
  ,                                       !- Building Shading Construction Name
  ,                                       !- Site Shading Construction Name
  ;                                       !- Adiabatic Surface Construction Name

OS:Surface,
  {92da1215-a1d9-4994-a219-eb9bc60725a4}, !- Handle
  Face 0,                                 !- Name
  Floor,                                  !- Surface Type
  ,                                       !- Construction Name
  {4a644715-6dd5-416f-a58a-495ad2d707f9}, !- Space Name
  Ground,                                 !- Outside Boundary Condition
  ,                                       !- Outside Boundary Condition Object
  NoSun,                                  !- Sun Exposure
  NoWind,                                 !- Wind Exposure
  ,                                       !- View Factor to Ground
  ,                                       !- Number of Vertices
  36, 168, 0,                             !- X,Y,Z Vertex 1 {m}
  36, 138, 0,                             !- X,Y,Z Vertex 2 {m}
  0, 138, 0,                              !- X,Y,Z Vertex 3 {m}
  0, 168, 0;                              !- X,Y,Z Vertex 4 {m}

OS:Surface,
  {672df759-5b1d-43ad-a5ed-2699f824b1c1}, !- Handle
  Face 1,                                 !- Name
  RoofCeiling,                            !- Surface Type
  ,                                       !- Construction Name
  {4a644715-6dd5-416f-a58a-495ad2d707f9}, !- Space Name