!IDD_Version 3.8.0
! *****************************************************************************
! This file is the Input Data Dictionary (IDD) for OpenStudio Model.
!
! Please see the EnergyPlus IDD Header for data formatting information. In
! addition to the syntax listed there, we add the following syntax items:
!
! Field-level comments:
!
!  \type handle      The field holds the UUID of the IDF object. This is used in lieu of names
!                    to keep track of references. It also enables \object-list AllObjects, which
!                    can point to any object.
!
!  \type url         The field references a file on at some location.  The reference
!                    may be a relative file path (in which case a set of search locations
!                    are used to find the file at run time), or it may be an
!                    absolute path to a local file.
!
! Object-level comments:
!
!  \url-object       Use if the object includes one or more fields of url type.
!
! Grouping comments:
!
! The groups in the OpenStudio IDD represent high level groupings of similar objects.
! ModelEditor displays un-parented objects in their corresponding group, where each group
! is collapsible.
!
! **************************************************************************

\group OpenStudio Core

OS:Version,
       \unique-object
       \required-object
       \format singleLine
       \min-fields 1
  A1, \field Handle
       \type handle
       \required-field
  A2, \field Version Identifier
       \type alpha
       \default 3.8.0
  A3; \field Prerelease Identifier
       \type alpha

OS:ComponentData,
       \memo Defines the meta-data and contents of a Component, that is, a
       \memo subset of an OpenStudio Model.
       \extensible:1
       \min-fields 7
  A1, \field Handle
       \type handle
       \required-field
  A2, \field Name
       \note This should be the name of the Component as listed in the
       \note Component Library.
       \type alpha
       \required-field
       \reference ComponentNames
  A3, \field UUID
       \note This is a UUID that follows the Component throughout its life,
       \note both in Models and in the Component Library.
       \type alpha
       \required-field
  A4, \field Version UUID
       \note This UUID should be changed whenever the Component is modified.
       \type alpha
       \required-field
  A5, \field Creation Timestamp
       \note Unix timestamp from January 1, 1970 00:00 GMT, in seconds.
       \type integer
  A6, \field Version Timestamp
       \note Unix timestamp from January 1, 1970 00:00 GMT, in seconds.
       \type integer
  A7; \field Name of Object
       \note The first object listed should be the primary object, which
       \note indicates the overall Component type.
       \type object-list
       \required-field
       \begin-extensible
       \object-list AllObjects

\group OpenStudio Simulation

OS:ConvergenceLimits,
       \unique-object
       \min-fields 1
  A1, \field Handle
       \type handle
       \required-field
  N1, \field Minimum System Timestep
       \note 0 sets the minimum to the zone timestep (ref: Timestep)
       \note 1 is normal (ratchet down to 1 minute)
       \note setting greater than zone timestep (in minutes) will effectively set to zone timestep
       \type integer
       \units minutes
       \minimum 0
       \maximum 60
  N2, \field Maximum HVAC Iterations
       \type integer
       \minimum 1
       \default 20
  N3, \field Minimum Plant Iterations
       \note Controls the minimum number of plant system solver iterations within a single HVAC iteration
       \note Larger values will increase runtime but might improve solution accuracy for complicated plant systems
       \note Complex plants include: several interconnected loops, heat recovery, thermal load following generators, etc.
       \type integer
       \minimum 1
       \default 2
  N4; \field Maximum Plant Iterations
       \note Controls the maximum number of plant system solver iterations within a single HVAC iteration
       \note Smaller values might decrease runtime but could decrease solution accuracy for complicated plant systems
       \type integer
       \minimum 2
       \default 8

OS:ProgramControl,
       \memo used to support various efforts in time reduction for simulation including threading
  A1, \field Handle
       \type handle
       \required-field
  N1; \field Number of Threads Allowed
       \type integer
       \minimum 0
       \note This is currently used only in the Interior Radiant Exchange module -- view factors on # surfaces
       \note if value is 0, then maximum number allowed will be used.

OS:HeatBalanceAlgorithm,
       \memo Determines which Heat Balance Algorithm will be used ie.
       \memo CTF (Conduction Transfer Functions),
       \memo EMPD (Effective Moisture Penetration Depth with Conduction Transfer Functions).
       \memo Advanced/Research Usage: CondFD (Conduction Finite Difference)
       \memo Advanced/Research Usage: ConductionFiniteDifferenceSimplified
       \memo Advanced/Research Usage: HAMT (Combined Heat And Moisture Finite Element)
       \unique-object
       \format singleLine
       \min-fields 1
  A1, \field Handle
       \type handle
       \required-field
  A2, \field Algorithm
       \type choice
       \default ConductionTransferFunction
       \key ConductionTransferFunction
       \key MoisturePenetrationDepthConductionTransferFunction
       \key ConductionFiniteDifference
       \key CombinedHeatAndMoistureFiniteElement
  N1, \field Surface Temperature Upper Limit
       \type real
       \units C
       \minimum 200
       \default 200.0
  N2, \field Minimum Surface Convection Heat Transfer Coefficient Value
       \type real
       \units W/m2-K
       \minimum> 0
       \default 0.1
  N3; \field Maximum Surface Convection Heat Transfer Coefficient Value
       \type real
       \units W/m2-K
       \minimum 1
       \default 1000

OS:RunPeriod,
      \unique-object
      \min-fields 12
  A1, \field Handle
       \type handle
       \required-field
  A2, \field Name
       \note descriptive name (used in reporting mainly)
       \note if blank, weather file title is used.  if not blank, must be unique
       \note EnergyPlus Start Year field is captured in OS:YearDescription object
       \type alpha
       \required-field
       \reference RunPeriods
       \reference RunPeriodsAndDesignDays
  N1, \field Begin Month
       \type integer
       \required-field
       \minimum 1
       \maximum 12
  N2, \field Begin Day of Month
       \type integer
       \required-field
       \minimum 1
       \maximum 31
  N3, \field End Month
       \type integer
       \required-field
       \minimum 1
       \maximum 12
  N4, \field End Day of Month
       \type integer
       \required-field
       \minimum 1
       \maximum 31
  A3, \field Use Weather File Holidays and Special Days
       \note If yes or blank, use holidays as specified on Weatherfile.
       \note If no, do not use the holidays specified on the Weatherfile.
       \note Note: You can still specify holidays/special days using the RunPeriodControl:SpecialDays object(s).
       \type choice
       \default Yes
       \key Yes
       \key No
  A4, \field Use Weather File Daylight Saving Period
       \note If yes or blank, use daylight saving period as specified on Weatherfile.
       \note If no, do not use the daylight saving period as specified on the Weatherfile.
       \type choice
       \default Yes
       \key Yes
       \key No
  A5, \field Apply Weekend Holiday Rule
       \note if yes and single day holiday falls on weekend, "holiday" occurs on following Monday
       \type choice
       \default No
       \key Yes
       \key No
  A6, \field Use Weather File Rain Indicators
       \type choice
       \default Yes
       \key Yes
       \key No
  A7, \field Use Weather File Snow Indicators
       \type choice
       \default Yes
       \key Yes
       \key No
  N5; \field Number of Times Runperiod to be Repeated
       \type integer
       \minimum 1
       \default 1

OS:RunPeriodControl:DaylightSavingTime,
       \memo This object sets up the daylight saving time period for any RunPeriod.
       \memo Ignores any daylight saving time period on the weather file and uses this definition.
       \memo These are not used with SizingPeriod:DesignDay objects.
       \memo Use with SizingPeriod:WeatherFileDays object can be controlled in that object.
       \unique-object
       \min-fields 3
  A1, \field Handle
       \type handle
       \required-field
  A2, \field Start Date
       \type alpha
       \required-field
  A3; \field End Date
       \note Dates can be several formats:
       \note <number>/<number>  (month/day)
       \note <number> <Month>
       \note <Month> <number>
       \note <Nth> <Weekday> in <Month)
       \note Last <WeekDay> in <Month>
       \note <Month> can be January, February, March, April, May, June, July, August, September, October, November, December
       \note Months can be the first 3 letters of the month
       \note <Weekday> can be Sunday, Monday, Tuesday, Wednesday, Thursday, Friday, Saturday
       \note <Nth> can be 1 or 1st, 2 or 2nd, etc. up to 5(?)
       \type alpha
       \required-field

OS:RunPeriodControl:SpecialDays,
       \memo This object sets up holidays/special days to be used during weather file
       \memo run periods.  (These are not used with SizingPeriod:* objects.)
       \memo Depending on the value in the run period, days on the weather file may also
       \memo be used.  However, the weather file specification will take precedence over
       \memo any specification shown here.  (No error message on duplicate days or overlapping
       \memo days).
       \min-fields 5
  A1, \field Handle
       \type handle
       \required-field
  A2, \field Name
       \type alpha
       \required-field
  A3, \field Start Date
       \note Dates can be several formats:
       \note <number>/<number>  (month/day)
       \note <number> <Month>
       \note <Month> <number>
       \note <Nth> <Weekday> in <Month)
       \note Last <WeekDay> in <Month>
       \note <Month> can be January, February, March, April, May, June, July, August, September, October, November, December
       \note Months can be the first 3 letters of the month
       \note <Weekday> can be Sunday, Monday, Tuesday, Wednesday, Thursday, Friday, Saturday
       \note <Nth> can be 1 or 1st, 2 or 2nd, etc. up to 5(?)
       \type alpha
       \required-field
  N1, \field Duration
       \type real
       \units days
       \minimum 1
       \maximum 366
       \default 1
  A4; \field Special Day Type
       \note Special Day Type selects the schedules appropriate for each day so labeled
       \type choice
       \default Holiday
       \key Holiday
       \key SummerDesignDay
       \key WinterDesignDay
       \key CustomDay1
       \key CustomDay2

OS:ShadowCalculation,
       \unique-object
       \min-fields 2
       \memo This object is used to control details of the solar, shading, and daylighting models
       \extensible:1
  A1,  \field Handle
       \type handle
       \required-field
  A2 , \field Shading Calculation Method
       \note Select between CPU-based polygon clipping method, the GPU-based pixel counting method,
       \note or importing from external shading data.
       \note If PixelCounting is selected and GPU hardware (or GPU emulation) is not available, a warning will be
       \note displayed and EnergyPlus will revert to PolygonClipping.
       \note If Scheduled is chosen, the Sunlit Fraction Schedule Name is required
       \note in SurfaceProperty:LocalEnvironment.
       \note If Imported is chosen, the Schedule:File:Shading object is required.
       \type choice
       \key PolygonClipping
       \key PixelCounting
       \key Scheduled
       \key Imported
       \required-field
       \note the default value is PolygonClipping
  A3 , \field Shading Calculation Update Frequency Method
       \note choose calculation frequency method. note that Timestep is only needed for certain cases
       \note and can increase execution time significantly.
       \type choice
       \key Periodic
       \key Timestep
       \default Periodic
  N1 , \field Shading Calculation Update Frequency
       \type integer
       \minimum 1
       \default 20
       \note enter number of days
       \note this field is only used if the previous field is set to Periodic
       \note warning issued if >31
  N2 , \field Maximum Figures in Shadow Overlap Calculations
       \note Number of allowable figures in shadow overlap in PolygonClipping calculations
       \type integer
       \minimum 200
       \default 15000
  A4 , \field Polygon Clipping Algorithm
       \note Advanced Feature.  Internal default is SutherlandHodgman
       \note Refer to InputOutput Reference and Engineering Reference for more information
       \type choice
       \key ConvexWeilerAtherton
       \key SutherlandHodgman
       \key SlaterBarskyandSutherlandHodgman
       \default SutherlandHodgman
  N3 , \field Pixel Counting Resolution
       \note Number of pixels in both dimensions of the surface rendering
       \type integer
       \required-field
       \note the default is 512
  A5 , \field Sky Diffuse Modeling Algorithm
       \note Advanced Feature.  Internal default is SimpleSkyDiffuseModeling
       \note If you have shading elements that change transmittance over the
       \note year, you may wish to choose the detailed method.
       \note Refer to InputOutput Reference and Engineering Reference for more information
       \type choice
       \key SimpleSkyDiffuseModeling
       \key DetailedSkyDiffuseModeling
       \default SimpleSkyDiffuseModeling
  A6 , \field Output External Shading Calculation Results
       \type choice
       \key Yes
       \key No
       \required-field
       \note the default is No
       \note If Yes is chosen, the calculated external shading fraction results will be saved to an external CSV file with surface names as the column headers.
  A6 , \field Disable Self-Shading Within Shading Zone Groups
       \note If Yes, self-shading will be disabled from all exterior surfaces in a given Shading Zone Group to surfaces within
       \note the same Shading Zone Group.
       \note If both Disable Self-Shading Within Shading Zone Groups and Disable Self-Shading From Shading Zone Groups to Other Zones = Yes,
       \note then all self-shading from exterior surfaces will be disabled.
       \note If only one of these fields = Yes, then at least one Shading Zone Group must be specified, or this field will be ignored.
       \note Shading from Shading:* surfaces, overhangs, fins, and reveals will not be disabled.
       \type choice
       \key Yes
       \key No
       \required-field
       \note the default is No
  A8 , \field Disable Self-Shading From Shading Zone Groups to Other Zones
       \note If Yes, self-shading will be disabled from all exterior surfaces in a given Shading Zone Group to all other zones in the model.
       \note If both Disable Self-Shading Within Shading Zone Groups and Disable Self-Shading From Shading Zone Groups to Other Zones = Yes,
       \note then all self-shading from exterior surfaces will be disabled.
       \note If only one of these fields = Yes, then at least one Shading Zone Group must be specified, or this field will be ignored.
       \note Shading from Shading:* surfaces, overhangs, fins, and reveals will not be disabled.
       \type choice
       \key Yes
       \key No
       \required-field
       \note the default is No
  A9 ; \field Shading Zone Group
       \note Specifies a group of zones which are controlled by the Disable Self-Shading fields.
       \type object-list
       \object-list ModelObjectLists
       \begin-extensible

OS:SimulationControl,
       \memo Note that the following 3 fields are related to the Sizing:Zone, Sizing:System,
       \memo and Sizing:Plant objects.  Having these fields set to Yes but no corresponding
       \memo Sizing object will not cause the sizing to be done. However, having any of these
       \memo fields set to No, the corresponding Sizing object is ignored.
       \memo Note also, if you want to do system sizing, you must also do zone sizing in the same
       \memo run or an error will result.
       \unique-object
       \min-fields 1
  A1, \field Handle
       \type handle
       \required-field
  A2, \field Do Zone Sizing Calculation
       \note If Yes, Zone sizing is accomplished from corresponding Sizing:Zone objects
       \note and autosize fields.
       \type choice
       \default No
       \key Yes
       \key No
  A3, \field Do System Sizing Calculation
       \note If Yes, System sizing is accomplished from corresponding Sizing:System objects
       \note and autosize fields.
       \note If Yes, Zone sizing (previous field) must also be Yes.
       \type choice
       \default No
       \key Yes
       \key No
  A4, \field Do Plant Sizing Calculation
       \note If Yes, Plant sizing is accomplished from corresponding Sizing:Plant objects
       \note and autosize fields.
       \type choice
       \default No
       \key Yes
       \key No
  A5, \field Run Simulation for Sizing Periods
       \note If Yes, SizingPeriod objects are executed and results from those may be displayed..
       \type choice
       \default Yes
       \key Yes
       \key No
  A6, \field Run Simulation for Weather File Run Periods
       \note If Yes, RunPeriod objects are executed and results from those may be displayed..
       \type choice
       \default Yes
       \key Yes
       \key No
  N1, \field Loads Convergence Tolerance Value
       \note Loads Convergence Tolerance Value is a fraction of load
       \type real
       \minimum> 0
       \maximum 0.5
       \default .04
       \units W
  N2, \field Temperature Convergence Tolerance Value
       \type real
       \units deltaC
       \minimum> 0
       \maximum 0.5
       \default .4
  A7, \field Solar Distribution
       \note MinimalShadowing | FullExterior | FullInteriorAndExterior | FullExteriorWithReflections | FullInteriorAndExteriorWithReflections
       \type choice
       \default FullExterior
       \key MinimalShadowing
       \key FullExterior
       \key FullInteriorAndExterior
       \key FullExteriorWithReflections
       \key FullInteriorAndExteriorWithReflections
  N3, \field Maximum Number of Warmup Days
       \note EnergyPlus will only use as many warmup days as needed to reach convergence tolerance.
       \note This field's value should NOT be set less than 25.
       \type integer
       \minimum> 0
       \default 25
  N5, \field Minimum Number of Warmup Days
       \note The minimum number of warmup days that produce enough temperature and flux history
       \note to start EnergyPlus simulation for all reference buildings was suggested to be 6.
       \note When this field is greater than the maximum warmup days defined previous field
       \note the maximum number of warmup days will be reset to the minimum value entered here.
       \note Warmup days will be set to be the value you entered when it is less than the default 1.
       \type integer
       \minimum> 0
       \default 1
  A8, \field Do HVAC Sizing Simulation for Sizing Periods
      \note If Yes, SizingPeriod:* objects are executed additional times for advanced sizing.
      \note Currently limited to use with coincident plant sizing, see Sizing:Plant object
      \type choice
      \key Yes
      \key No
      \default No
  N6; \field Maximum Number of HVAC Sizing Simulation Passes
      \note the entire set of SizingPeriod:* objects may be repeated to fine tune size results
      \note this input sets a limit on the number of passes that the sizing algorithms can repeat the set
      \type integer
      \minimum 1
      \default 1

OS:PerformancePrecisionTradeoffs,
       \unique-object
       \memo This object enables users to choose certain options that speed up EnergyPlus simulation,
       \memo but may lead to small decreases in accuracy of results.
       \min-fields 2
  A1, \field Handle
       \type handle
       \required-field
  A2, \field Use Coil Direct Solutions
      \note If Yes, an analytical or empirical solution will be used to replace iterations in
      \note the coil performance calculations.
      \type choice
      \key Yes
      \key No
      \default No
  A3, \field Zone Radiant Exchange Algorithm
      \note Determines which algorithm will be used to solve long wave radiant exchange among surfaces within a zone.
      \type choice
      \key ScriptF
      \key CarrollMRT
      \default ScriptF
  A4, \field Override Mode
      \note The increasing mode number roughly correspond with increased speed. A description of each mode
      \note are shown in the documentation. When Advanced is selected the N1 field value is used.
      \type choice
      \key Normal
      \key Mode01
      \key Mode02
      \key Mode03
      \key Mode04
      \key Mode05
      \key Mode06
      \key Mode07
      \key Mode08
      \key Advanced
      \default Normal
  N1, \field MaxZoneTempDiff
      \note Maximum zone temperature change before HVAC timestep is shortened.
      \note Only used when Override Mode is set to Advanced
      \type real
      \minimum 0.1
      \maximum 3.0
      \default 0.3
  N2, \field MaxAllowedDelTemp
      \note Maximum surface temperature change before HVAC timestep is shortened.
      \note Only used when Override Mode is set to Advanced
      \type real
      \minimum 0.002
      \maximum 0.1
      \default 0.002
  A5; \field Use Representative Surfaces for Calculations
      \note Automatically group surfaces with similar characteristics and perform relevant calculations only once for each group.
      \type choice
      \key Yes
      \key No
      \default No

OS:Sizing:Parameters,
       \unique-object
       \min-fields 2
  A1, \field Handle
       \type handle
       \required-field
  N1, \field Heating Sizing Factor
       \type real
       \minimum> 0
       \default 1.0
  N2, \field Cooling Sizing Factor
       \type real
       \minimum> 0
       \default 1.0
  N3; \field Timesteps in Averaging Window
       \note blank => set the timesteps in averaging window to
       \note Number of Timesteps per Hour resulting in a 1 hour averaging window
       \note default is number of timesteps for 1 hour averaging window
       \type integer
       \minimum 1

OS:SurfaceConvectionAlgorithm:Inside,
       \memo Default indoor surface heat transfer convection algorithm to be used for all zones
       \unique-object
       \format singleLine
       \min-fields 2
  A1, \field Handle
       \type handle
       \required-field
  A2; \field Algorithm
       \note Simple = constant value natural convection (ASHRAE)
       \note TARP = variable natural convection based on temperature difference (ASHRAE, Walton)
       \note CeilingDiffuser = ACH-based forced and mixed convection correlations
       \note for ceiling diffuser configuration with simple natural convection limit
       \note AdaptiveConvectionAlgorithm = dynamic selection of convection models based on conditions
       \note ASTMC1340 = mixed convection correlations based on heat flow direction,
       \note  surface tilt angle, surface characteristic length, and air speed past the surface.
       \type choice
       \default TARP
       \key Simple
       \key TARP
       \key CeilingDiffuser
       \key AdaptiveConvectionAlgorithm
       \key ASTMC1340

OS:SurfaceConvectionAlgorithm:Outside,
       \memo Default outside surface heat transfer convection algorithm to be used for all zones
       \unique-object
       \format singleLine
       \min-fields 2
  A1, \field Handle
       \type handle
       \required-field
  A2; \field Algorithm
       \note SimpleCombined = Combined radiation and convection coefficient using simple ASHRAE model
       \note TARP = correlation from models developed by ASHRAE, Walton, and Sparrow et. al.
       \note MoWiTT = correlation from measurements by Klems and Yazdanian for smooth surfaces
       \note DOE-2 = correlation from measurements by Klems and Yazdanian for rough surfaces
       \note AdaptiveConvectionAlgorithm = dynamic selection of correlations based on conditions
       \type choice
       \default DOE-2
       \key SimpleCombined
       \key TARP
       \key MoWiTT
       \key DOE-2
       \key AdaptiveConvectionAlgorithm

OS:Timestep,
       \unique-object
       \format singleLine
       \min-fields 2
  A1, \field Handle
       \type handle
       \required-field
  N1; \field Number of Timesteps per Hour
       \note Number in hour: normal validity 4 to 60: 6 suggested
       \note Must be evenly divisible into 60
       \note Allowable values include 1, 2, 3, 4, 5, 6, 10, 12, 15, 20, 30, and 60
       \note Normal 6 is mimimum as lower values may cause inaccuracies
       \note A minimum value of 20 is suggested for both ConductionFiniteDifference
       \note and CombinedHeatAndMoistureFiniteElement surface heat balance alogorithms
       \note A minimum of 12 is suggested for simulations involving a Vegetated Roof (Material:RoofVegetation).
       \type integer
       \minimum 1
       \maximum 60
       \default 6

OS:YearDescription,
       \unique-object
       \min-fields 1
  A1, \field Handle
       \type handle
       \required-field
  A2, \field Calendar Year
       \type integer
  A3, \field Day of Week for Start Day
       \note Not used if calendar year is given
       \note =<blank - use WeatherFile>|Sunday|Monday|Tuesday|Wednesday|Thursday|Friday|Saturday];
       \type choice
       \default UseWeatherFile
       \key Sunday
       \key Monday
       \key Tuesday
       \key Wednesday
       \key Thursday
       \key Friday
       \key Saturday
       \key UseWeatherFile
  A4; \field Is Leap Year
       \note Not used if calendar year is given
       \type choice
       \default No
       \key Yes
       \key No

OS:ZoneAirContaminantBalance,
       \memo Determines which contaminant concentration will be simulates.
       \unique-object
       \format singleLine
       \min-fields 1
  A1, \field Handle
       \type handle
       \required-field
  A2, \field Carbon Dioxide Concentration
       \note If Yes, CO2 simulation will be performed.
       \type choice
       \default No
       \key Yes
       \key No
  A3; \field Outdoor Carbon Dioxide Schedule Name
       \note Schedule values should be in parts per million (ppm)
       \type object-list
       \object-list ScheduleNames

OS:ZoneAirHeatBalanceAlgorithm,
       \memo Controls the zone/space air heat balance.
       \unique-object
       \format singleLine
       \min-fields 4
  A1, \field Handle
       \type handle
       \required-field
  A2, \field Algorithm
       \note Determines which algorithm will be used to solve the air heat balance
       \type choice
       \default ThirdOrderBackwardDifference
       \key ThirdOrderBackwardDifference
       \key AnalyticalSolution
       \key EulerMethod
  A3, \field Do Space Heat Balance for Sizing
       \note If yes, space heat balance will be calculated and reported during sizing.
       \type choice
       \key No
       \key Yes
       \default No
  A4; \field Do Space Heat Balance for Simulation
       \note If yes, space heat balance will be calculated and reported during simulation.
       \type choice
       \key No
       \key Yes
       \default No

OS:ZoneAirMassFlowConservation,
       \memo Enforces the zone air mass flow balance by adjusting zone mixing object flow rates.
       \memo The infiltration object mass flow rate may also be adjusted or may add infiltration
       \memo air flow to the base infiltration air flow for source zones only.
       \unique-object
  A1,  \field Handle
       \type handle
       \required-field
  A2,  \field Adjust Zone Mixing and Return For Air Mass Flow Balance
       \type choice
       \key AdjustMixingOnly
       \key AdjustReturnOnly
       \key AdjustMixingThenReturn
       \key AdjustReturnThenMixing
       \key None
       \default None
  A3,  \field Infiltration Balancing Method
       \type choice
       \key AddInfiltrationFlow
       \key AdjustInfiltrationFlow
       \key None
       \default AddInfiltrationFlow
  A4;  \field Infiltration Balancing Zones
       \type choice
       \key MixingSourceZonesOnly
       \key AllZones
       \default MixingSourceZonesOnly

OS:ZoneCapacitanceMultiplier:ResearchSpecial,
       \memo Multiplier altering the relative capacitance of the air compared to an empty zone
       \unique-object
       \format singleLine
       \min-fields 4
  A1, \field Handle
       \type handle
       \required-field
  N1, \field Temperature Capacity Multiplier
       \note Used to alter the capacitance of zone air with respect to heat or temperature
       \type real
       \minimum> 0
       \default 1.0
  N2, \field Humidity Capacity Multiplier
       \note Used to alter the capacitance of zone air with respect to moisture or humidity ratio
       \type real
       \minimum> 0
       \default 1.0
  N3; \field Carbon Dioxide Capacity Multiplier
       \note Used to alter the capacitance of zone air with respect to zone air contaminant concentration
       \type real
       \minimum> 0
       \default 1.0

OS:RadianceParameters,
       \memo Radiance simulation parameters
       \unique-object
  A1, \field Handle
       \type handle
       \required-field
  N1, \field Accumulated Rays per Record
       \note accumulated rays per record, -c option to rcontrib
       \note The -c option tells rcontrib how  many  rays  to  accumulate  for  each
       \note record.  The default value is 1, meaning a full record will be produced