
OS:Version,
  {c162798a-bb0c-4fe2-a52e-d12335804cb6}, !- Handle
  3.3.0;                                  !- Version Identifier

OS:SimulationControl,
  {1f568200-fd41-4db8-ae42-1842c4ac7971}, !- Handle
  Yes,                                    !- Do Zone Sizing Calculation
  No,                                     !- Do System Sizing Calculation
  No,                                     !- Do Plant Sizing Calculation
  Yes,                                    !- Run Simulation for Sizing Periods
  Yes,                                    !- Run Simulation for Weather File Run Periods
  0.04,                                   !- Loads Convergence Tolerance Value {W}
  0.4,                                    !- Temperature Convergence Tolerance Value {deltaC}
  FullExterior,                           !- Solar Distribution
  25,                                     !- Maximum Number of Warmup Days
  6,                                      !- Minimum Number of Warmup Days
  No,                                     !- Do HVAC Sizing Simulation for Sizing Periods
  1;                                      !- Maximum Number of HVAC Sizing Simulation Passes

OS:Building,
  {add0e62f-73a6-4e73-9c5e-b7b362053396}, !- Handle
  Building (A),                           !- Name
  ,                                       !- Building Sector Type
  0,                                      !- North Axis {deg}
  ,                                       !- Nominal Floor to Floor Height {m}
  ,                                       !- Space Type Name
  ,                                       !- Default Construction Set Name
  ;                                       !- Default Schedule Set Name

OS:Construction,
  {5528a70c-a173-4d9f-96c6-4540df933c73}, !- Handle
  Roof NonRes MetBldg CZ4 ASHRAE90.1-2016, !- Name
  {662ef559-c7b2-449f-b892-44a59e2bb462}, !- Surface Rendering Name
  {21f429ad-b7fd-4ede-b24d-6fa1391276dd}, !- Layer 1
  {be5035ef-2720-42b1-baa6-a46a3adf4050}, !- Layer 2
  {3d76250c-48a0-4aa5-a080-356032a44f8c}; !- Layer 3

OS:Material,
  {21f429ad-b7fd-4ede-b24d-6fa1391276dd}, !- Handle
  Built-up Roofing [.375 in][.953 cm],    !- Name
  VeryRough,                              !- Roughness
  0.009525,                               !- Thickness {m}
  0.155736,                               !- Conductivity {W/m-K}
  1121.2917282,                           !- Density {kg/m3}
  1380.72,                                !- Specific Heat {J/kg-K}
  0.9,                                    !- Thermal Absorptance
  0.7,                                    !- Solar Absorptance
  0.7;                                    !- Visible Absorptance

OS:Material:NoMass,
  {be5035ef-2720-42b1-baa6-a46a3adf4050}, !- Handle
  COMNET-Framing/Insulation-Roof Metal Framing w/ R-11 [3 in][7.62 cm], !- Name
  MediumRough,                            !- Roughness
  1.05666116557123,                       !- Thermal Resistance {m2-K/W}
  0.9,                                    !- Thermal Absorptance
  0.7,                                    !- Solar Absorptance
  0.7;                                    !- Visible Absorptance

OS:Material,
  {3d76250c-48a0-4aa5-a080-356032a44f8c}, !- Handle
  F16 Acoustic tile [.752 in][1.91 cm],   !- Name
  MediumSmooth,                           !- Roughness
  0.0191,                                 !- Thickness {m}
  0.0605757176783872,                     !- Conductivity {W/m-K}
  367.943803556246,                       !- Density {kg/m3}
  585.76,                                 !- Specific Heat {J/kg-K}
  0.9,                                    !- Thermal Absorptance
  0.7,                                    !- Solar Absorptance
  0.7;                                    !- Visible Absorptance

OS:Surface,
  {05cd6c16-2d4f-48b0-9a4e-ec6fd47ba471}, !- Handle
  Ceiling Void A.D.4.2:Roof Deck 3:1,     !- Name
  RoofCeiling,                            !- Surface Type
  {5528a70c-a173-4d9f-96c6-4540df933c73}, !- Construction Name
  {5bb2776e-b8d9-41a9-b162-03ee81583a13}, !- Space Name
  Outdoors,                               !- Outside Boundary Condition
  ,                                       !- Outside Boundary Condition Object
  SunExposed,                             !- Sun Exposure
  WindExposed,                            !- Wind Exposure
  ,                                       !- View Factor to Ground
  ,                                       !- Number of Vertices
  47.0000062421147, 34.9999978540024, 33.4643973991189, !- X,Y,Z Vertex 1 {m}
  52.4491997805762, 29.5508028540024, 31.1939000914266, !- X,Y,Z Vertex 2 {m}
  52.4491997805762, 40.4491948540024, 31.1939000914266; !- X,Y,Z Vertex 3 {m}

OS:ThermalZone,
  {b2579d95-4f4e-4dc3-b2d2-18ae17992b6a}, !- Handle
  Ceiling Void Zone A.D.4.2,              !- Name
  1,                                      !- Multiplier
  5.1919122352856,                        !- Ceiling Height {m}
  1974.67495316699,                       !- Volume {m3}
  ,                                       !- Floor Area {m2}
  ,                                       !- Zone Inside Convection Algorithm
  ,                                       !- Zone Outside Convection Algorithm
  ,                                       !- Zone Conditioning Equipment List Name
  {53b45a83-d1e8-42e8-ad49-64c0259c0250}, !- Zone Air Inlet Port List
  {40735ad1-ac65-43a1-8486-2827f0e876f2}, !- Zone Air Exhaust Port List
  {1c1660c2-0d48-49fe-8cdf-9176b1c9db51}, !- Zone Air Node Name
  {ded14c15-df70-473a-a8df-f1218beff418}, !- Zone Return Air Port List
  ,                                       !- Primary Daylighting Control Name
  ,                                       !- Fraction of Zone Controlled by Primary Daylighting Control
  ,                                       !- Secondary Daylighting Control Name
  ,                                       !- Fraction of Zone Controlled by Secondary Daylighting Control
  ,                                       !- Illuminance Map Name
  {493e68c9-949d-4a99-95be-c6883ca39c02}, !- Group Rendering Name
  ,                                       !- Thermostat Name
  No;                                     !- Use Ideal Air Loads

OS:Node,
  {fbaa77bf-6c44-4489-97aa-9f57863cfad3}, !- Handle
  Node 1,                                 !- Name
  {1c1660c2-0d48-49fe-8cdf-9176b1c9db51}, !- Inlet Port
  ;                                       !- Outlet Port

OS:Connection,
  {1c1660c2-0d48-49fe-8cdf-9176b1c9db51}, !- Handle
  {b2579d95-4f4e-4dc3-b2d2-18ae17992b6a}, !- Source Object
  11,                                     !- Outlet Port
  {fbaa77bf-6c44-4489-97aa-9f57863cfad3}, !- Target Object
  2;                                      !- Inlet Port

OS:PortList,
  {53b45a83-d1e8-42e8-ad49-64c0259c0250}, !- Handle
  {b2579d95-4f4e-4dc3-b2d2-18ae17992b6a}; !- HVAC Component

OS:PortList,
  {40735ad1-ac65-43a1-8486-2827f0e876f2}, !- Handle
  {b2579d95-4f4e-4dc3-b2d2-18ae17992b6a}; !- HVAC Component

OS:PortList,
  {ded14c15-df70-473a-a8df-f1218beff418}, !- Handle
  {b2579d95-4f4e-4dc3-b2d2-18ae17992b6a}; !- HVAC Component

OS:Sizing:Zone,
  {80d94722-c5c0-4377-a266-bf102a96e2d3}, !- Handle
  {b2579d95-4f4e-4dc3-b2d2-18ae17992b6a}, !- Zone or ZoneList Name
  SupplyAirTemperature,                   !- Zone Cooling Design Supply Air Temperature Input Method
  14,                                     !- Zone Cooling Design Supply Air Temperature {C}
  11.11,                                  !- Zone Cooling Design Supply Air Temperature Difference {deltaC}
  SupplyAirTemperature,                   !- Zone Heating Design Supply Air Temperature Input Method
  40,                                     !- Zone Heating Design Supply Air Temperature {C}
  11.11,                                  !- Zone Heating Design Supply Air Temperature Difference {deltaC}
  0.0085,                                 !- Zone Cooling Design Supply Air Humidity Ratio {kg-H2O/kg-air}
  0.008,                                  !- Zone Heating Design Supply Air Humidity Ratio {kg-H2O/kg-air}
  ,                                       !- Zone Heating Sizing Factor
  ,                                       !- Zone Cooling Sizing Factor
  DesignDay,                              !- Cooling Design Air Flow Method
  ,                                       !- Cooling Design Air Flow Rate {m3/s}
  ,                                       !- Cooling Minimum Air Flow per Zone Floor Area {m3/s-m2}
  ,                                       !- Cooling Minimum Air Flow {m3/s}
  ,                                       !- Cooling Minimum Air Flow Fraction
  DesignDay,                              !- Heating Design Air Flow Method
  ,                                       !- Heating Design Air Flow Rate {m3/s}
  ,                                       !- Heating Maximum Air Flow per Zone Floor Area {m3/s-m2}
  ,                                       !- Heating Maximum Air Flow {m3/s}
  ,                                       !- Heating Maximum Air Flow Fraction
  No,                                     !- Account for Dedicated Outdoor Air System
  NeutralSupplyAir,                       !- Dedicated Outdoor Air System Control Strategy
  autosize,                               !- Dedicated Outdoor Air Low Setpoint Temperature for Design {C}
  autosize;                               !- Dedicated Outdoor Air High Setpoint Temperature for Design {C}

OS:ZoneHVAC:EquipmentList,
  {385a6e81-53d2-4482-9369-a370477c72e4}, !- Handle
  Zone HVAC Equipment List 1,             !- Name
  {b2579d95-4f4e-4dc3-b2d2-18ae17992b6a}; !- Thermal Zone

OS:Space,
  {5bb2776e-b8d9-41a9-b162-03ee81583a13}, !- Handle
  Ceiling Void Zone A.D.4.2 Space,        !- Name
  ,                                       !- Space Type Name
  ,                                       !- Default Construction Set Name
  ,                                       !- Default Schedule Set Name
  0,                                      !- Direction of Relative North {deg}
  0,                                      !- X Origin {m}
  0,                                      !- Y Origin {m}
  0,                                      !- Z Origin {m}
  ,                                       !- Building Story Name
  {b2579d95-4f4e-4dc3-b2d2-18ae17992b6a}, !- Thermal Zone Name
  No;                                     !- Part of Total Floor Area

OS:Surface,
  {ce56444c-3120-497e-b467-205f2c5b76f4}, !- Handle
  Ceiling Void A.D.4.2:Roof Deck 6:1,     !- Name
  RoofCeiling,                            !- Surface Type
  {5528a70c-a173-4d9f-96c6-4540df933c73}, !- Construction Name
  {5bb2776e-b8d9-41a9-b162-03ee81583a13}, !- Space Name
  Outdoors,                               !- Outside Boundary Condition
  ,                                       !- Outside Boundary Condition Object
  SunExposed,                             !- Sun Exposure
  WindExposed,                            !- Wind Exposure
  ,                                       !- View Factor to Ground
  ,                                       !- Number of Vertices
  46.9999996960855, 35.0000039333505, 33.4643983611039, !- X,Y,Z Vertex 1 {m}
  52.4491951105361, 40.4492004774885, 31.1938998010465, !- X,Y,Z Vertex 2 {m}
  17.550805, 40.4491997931461, 31.1939000861891, !- X,Y,Z Vertex 3 {m}
  22.9999999397517, 35.0000056700292, 33.4643976374878; !- X,Y,Z Vertex 4 {m}

OS:Surface,
  {08d4030c-1133-4f57-90bb-2d2eed0c57cd}, !- Handle
  Ceiling Void A.D.4.2:Roof Deck 9:1,     !- Name
  RoofCeiling,                            !- Surface Type
  {5528a70c-a173-4d9f-96c6-4540df933c73}, !- Construction Name
  {5bb2776e-b8d9-41a9-b162-03ee81583a13}, !- Space Name
  Outdoors,                               !- Outside Boundary Condition
  ,                                       !- Outside Boundary Condition Object
  SunExposed,                             !- Sun Exposure
  WindExposed,                            !- Wind Exposure
  ,                                       !- View Factor to Ground
  ,                                       !- Number of Vertices
  22.9999956040392, 35.0000001459976, 33.4643981683496, !- X,Y,Z Vertex 1 {m}
  17.5508002194238, 40.4491971459976, 31.1939000914266, !- X,Y,Z Vertex 2 {m}
  17.5508002194238, 29.5508031459976, 31.1939000914266; !- X,Y,Z Vertex 3 {m}

OS:Surface,
  {7417cf6d-bfbd-4a74-92f4-324dc1fe058a}, !- Handle
  Ceiling Void A.D.4.2:Roof Deck 12:1,    !- Name
  RoofCeiling,                            !- Surface Type
  {5528a70c-a173-4d9f-96c6-4540df933c73}, !- Construction Name
  {5bb2776e-b8d9-41a9-b162-03ee81583a13}, !- Space Name
  Outdoors,                               !- Outside Boundary Condition
  ,                                       !- Outside Boundary Condition Object
  SunExposed,                             !- Sun Exposure
  WindExposed,                            !- Wind Exposure
  ,                                       !- View Factor to Ground
  ,                                       !- Number of Vertices
  23.0000014751503, 34.9999965560655, 33.4643985650273, !- X,Y,Z Vertex 1 {m}
  17.5508059808276, 29.5508000799843, 31.1939000333268, !- X,Y,Z Vertex 2 {m}
  52.449194, 29.5508010589249, 31.1939004412187, !- X,Y,Z Vertex 3 {m}
  47.0000011749608, 34.9999932152583, 33.4643971730243; !- X,Y,Z Vertex 4 {m}

OS:Construction,
  {e7995a2d-f0ed-4999-920a-bba3301b23c8}, !- Handle
  Ceiling-Acoustic Tile (0.75"),          !- Name
  {ac55b997-2f68-450d-beb6-a30454fba7d5}, !- Surface Rendering Name
  {88dc3446-8edc-4983-8da3-06f0a20cc6ce}; !- Layer 1

OS:Material,
  {88dc3446-8edc-4983-8da3-06f0a20cc6ce}, !- Handle
  INT-FINISH_AcousticTile [.75 in][1.905 cm], !- Name
  Smooth,                                 !- Roughness
  0.01905,                                !- Thickness {m}
  0.06,                                   !- Conductivity {W/m-K}
  368.424357065462,                       !- Density {kg/m3}
  585.76,                                 !- Specific Heat {J/kg-K}
  0.9,                                    !- Thermal Absorptance
  0.7,                                    !- Solar Absorptance
  0.7;                                    !- Visible Absorptance

OS:SubSurface,
  {7f4efcff-e5db-4beb-831f-7e70ce652285}, !- Handle
  Space A.D.3.7:Window A.D.3.11.1:1,      !- Name
  FixedWindow,                            !- Sub Surface Type
  {1e4cd151-41d7-4ec6-bb33-f9197571d9e4}, !- Construction Name
  {44e3801f-d019-45f3-9967-71b487a80760}, !- Surface Name
  ,                                       !- Outside Boundary Condition Object
  ,                                       !- View Factor to Ground
  {07a296b3-9e98-48b0-85a8-0d8dc84f88b7}, !- Frame and Divider Name
  1,                                      !- Multiplier
  ,                                       !- Number of Vertices
  24.4, 60, 18.7,                         !- X,Y,Z Vertex 1 {m}
  24.4, 60, 16.782,                       !- X,Y,Z Vertex 2 {m}
  21.4, 60, 16.782,                       !- X,Y,Z Vertex 3 {m}
  21.4, 60, 18.7;                         !- X,Y,Z Vertex 4 {m}

OS:Construction,
  {1e4cd151-41d7-4ec6-bb33-f9197571d9e4}, !- Handle
  VertFen NonRes MetalFixed CZ4 ASHRAE90.1-2016, !- Name
  {5c068a95-1091-4671-8da5-8dd2c8720068}, !- Surface Rendering Name
  {7172f00c-7109-4c81-a05b-cc26485ea55f}; !- Layer 1

OS:WindowMaterial:SimpleGlazingSystem,
  {7172f00c-7109-4c81-a05b-cc26485ea55f}, !- Handle
  Glazing NonRes MetalFixed CZ4 ASHRAE90.1-2016 [.236 in][.6 cm], !- Name
  2.15773994,                             !- U-Factor {W/m2-K}
  0.36,                                   !- Solar Heat Gain Coefficient
  0.396;                                  !- Visible Transmittance

OS:Surface,
  {44e3801f-d019-45f3-9967-71b487a80760}, !- Handle
  Space A.D.3.7:Wall A.D.3.11:10,         !- Name
  Wall,                                   !- Surface Type
  {5748926e-f771-4b8f-883b-0b14b48f1d0c}, !- Construction Name
  {1d5e78ee-dcdb-4551-8636-e3c6cae14397}, !- Space Name
  Outdoors,                               !- Outside Boundary Condition
  ,                                       !- Outside Boundary Condition Object
  SunExposed,                             !- Sun Exposure
  WindExposed,                            !- Wind Exposure
  ,                                       !- View Factor to Ground
  ,                                       !- Number of Vertices
  25, 60, 19,                             !- X,Y,Z Vertex 1 {m}
  25, 60, 16,                             !- X,Y,Z Vertex 2 {m}
  20.8508, 60, 16,                        !- X,Y,Z Vertex 3 {m}
  20.8508, 60, 19;                        !- X,Y,Z Vertex 4 {m}

OS:Construction,
  {5748926e-f771-4b8f-883b-0b14b48f1d0c}, !- Handle
  Wall NonRes MetBldg CZ4 ASHRAE90.1-2016, !- Name
  {8474603f-459b-4c7a-8ce9-a7c4abf4745e}, !- Surface Rendering Name
  {8bd8770e-b319-4f32-82a9-c7a781d7514c}, !- Layer 1
  {7a044410-728c-4491-af8e-1238438e7e32}, !- Layer 2
  {11688aa3-27d7-4f8e-b7bb-20154b79e54c}, !- Layer 3
  {809bf886-2c58-427e-b3b0-6a1a99cb91b3}; !- Layer 4

OS:Material,
  {8bd8770e-b319-4f32-82a9-c7a781d7514c}, !- Handle
  F08 Metal surface [.059 in][.15 cm],    !- Name
  Smooth,                                 !- Roughness
  0.0014986,                              !- Thickness {m}
  45.2803489645944,                       !- Conductivity {W/m-K}
  7824.05186804584,                       !- Density {kg/m3}
  502.08,                                 !- Specific Heat {J/kg-K}
  0.9,                                    !- Thermal Absorptance
  0.7,                                    !- Solar Absorptance
  0.7;                                    !- Visible Absorptance

OS:Material:NoMass,
  {7a044410-728c-4491-af8e-1238438e7e32}, !- Handle
  COMNET-Framing/Insulation-Wall Metal Framing w/ R-0 [3 in][7.62 cm], !- Name
  MediumRough,                            !- Roughness
  0.107427218499742,                      !- Thermal Resistance {m2-K/W}
  0.9,                                    !- Thermal Absorptance
  0.7,                                    !- Solar Absorptance
  0.7;                                    !- Visible Absorptance

OS:Material:NoMass,
  {11688aa3-27d7-4f8e-b7bb-20154b79e54c}, !- Handle
  Continuous insulation R-15.8 [.95 in][2.413 cm], !- Name
  MediumRough,                            !- Roughness
  2.64341182017361,                       !- Thermal Resistance {m2-K/W}
  0.9,                                    !- Thermal Absorptance
  0.7,                                    !- Solar Absorptance
  0.7;                                    !- Visible Absorptance

OS:Material,
  {809bf886-2c58-427e-b3b0-6a1a99cb91b3}, !- Handle
  Gypsum or plaster board [.5 in][1.27 cm], !- Name
  MediumSmooth,                           !- Roughness
  0.0127,                                 !- Thickness {m}
  0.579796154921706,                      !- Conductivity {W/m-K}
  799.961408341268,                       !- Density {kg/m3}
  1087.84,                                !- Specific Heat {J/kg-K}
  0.9,                                    !- Thermal Absorptance
  0.7,                                    !- Solar Absorptance
  0.7;                                    !- Visible Absorptance

OS:ThermalZone,
  {c3c7ef23-e416-44af-b454-58c2989b85d8}, !- Handle
  Thermal Zone A.D.3.7,                   !- Name
  1,                                      !- Multiplier
  3,                                      !- Ceiling Height {m}
  51.647568,                              !- Volume {m3}
  ,                                       !- Floor Area {m2}
  ,                                       !- Zone Inside Convection Algorithm
  ,                                       !- Zone Outside Convection Algorithm
  ,                                       !- Zone Conditioning Equipment List Name
  {fa06d54e-b2ee-41cd-9f31-a769dd83e927}, !- Zone Air Inlet Port List
  {b5656804-e08e-4f03-ab95-1e1141a230e8}, !- Zone Air Exhaust Port List
  {2a1c68bd-7d2f-49a6-b35b-82f392437039}, !- Zone Air Node Name
  {6f2aba8c-6ff3-4688-bd68-846442b369ff}, !- Zone Return Air Port List
  ,                                       !- Primary Daylighting Control Name
  ,                                       !- Fraction of Zone Controlled by Primary Daylighting Control
  ,                                       !- Secondary Daylighting Control Name
  ,                                       !- Fraction of Zone Controlled by Secondary Daylighting Control
  ,                                       !- Illuminance Map Name
  {25885886-0f69-4e08-b135-85a798410238}, !- Group Rendering Name
  {a2a2f3d2-592d-4299-85ef-99d6cd557156}, !- Thermostat Name
  No;                                     !- Use Ideal Air Loads

OS:Node,
  {fcd0cea3-b581-4e87-8ee2-e6a8762a4584}, !- Handle
  Node 2,                                 !- Name
  {2a1c68bd-7d2f-49a6-b35b-82f392437039}, !- Inlet Port
  ;                                       !- Outlet Port

OS:Connection,
  {2a1c68bd-7d2f-49a6-b35b-82f392437039}, !- Handle
  {c3c7ef23-e416-44af-b454-58c2989b85d8}, !- Source Object
  11,                                     !- Outlet Port
  {fcd0cea3-b581-4e87-8ee2-e6a8762a4584}, !- Target Object
  2;                                      !- Inlet Port

OS:PortList,
  {fa06d54e-b2ee-41cd-9f31-a769dd83e927}, !- Handle
  {c3c7ef23-e416-44af-b454-58c2989b85d8}; !- HVAC Component

OS:PortList,
  {b5656804-e08e-4f03-ab95-1e1141a230e8}, !- Handle
  {c3c7ef23-e416-44af-b454-58c2989b85d8}; !- HVAC Component

OS:PortList,
  {6f2aba8c-6ff3-4688-bd68-846442b369ff}, !- Handle
  {c3c7ef23-e416-44af-b454-58c2989b85d8}; !- HVAC Component

OS:Sizing:Zone,
  {c1da8373-ac31-4f62-9a59-a0eab102f6b2}, !- Handle
  {c3c7ef23-e416-44af-b454-58c2989b85d8}, !- Zone or ZoneList Name
  SupplyAirTemperature,                   !- Zone Cooling Design Supply Air Temperature Input Method
  12.7777777777778,                       !- Zone Cooling Design Supply Air Temperature {C}
  11.11,                                  !- Zone Cooling Design Supply Air Temperature Difference {deltaC}
  SupplyAirTemperature,                   !- Zone Heating Design Supply Air Temperature Input Method
  50,                                     !- Zone Heating Design Supply Air Temperature {C}
  11.11,                                  !- Zone Heating Design Supply Air Temperature Difference {deltaC}
  0.0085,                                 !- Zone Cooling Design Supply Air Humidity Ratio {kg-H2O/kg-air}
  0.008,                                  !- Zone Heating Design Supply Air Humidity Ratio {kg-H2O/kg-air}
  ,                                       !- Zone Heating Sizing Factor
  ,                                       !- Zone Cooling Sizing Factor
  DesignDay,                              !- Cooling Design Air Flow Method
  0,                                      !- Cooling Design Air Flow Rate {m3/s}
  0.149999999989632,                      !- Cooling Minimum Air Flow per Zone Floor Area {m3/s-m2}
  0,                                      !- Cooling Minimum Air Flow {m3/s}
  0.2,                                    !- Cooling Minimum Air Flow Fraction
  DesignDay,                              !- Heating Design Air Flow Method
  0,                                      !- Heating Design Air Flow Rate {m3/s}
  0.399999999972352,                      !- Heating Maximum Air Flow per Zone Floor Area {m3/s-m2}
  299.982979109044,                       !- Heating Maximum Air Flow {m3/s}
  0.3,                                    !- Heating Maximum Air Flow Fraction
  No,                                     !- Account for Dedicated Outdoor Air System
  NeutralSupplyAir,                       !- Dedicated Outdoor Air System Control Strategy
  autosize,                               !- Dedicated Outdoor Air Low Setpoint Temperature for Design {C}
  autosize;                               !- Dedicated Outdoor Air High Setpoint Temperature for Design {C}

OS:ZoneHVAC:EquipmentList,
  {77a30ba6-ad80-4d55-9e16-74669818c294}, !- Handle
  Zone HVAC Equipment List 2,             !- Name
  {c3c7ef23-e416-44af-b454-58c2989b85d8}; !- Thermal Zone

OS:Space,
  {1d5e78ee-dcdb-4551-8636-e3c6cae14397}, !- Handle
  Thermal Zone A.D.3.7 Space,             !- Name
  {bd7a7e62-5e77-45ba-bec9-4af849309cda}, !- Space Type Name
  ,                                       !- Default Construction Set Name
  ,                                       !- Default Schedule Set Name
  0,                                      !- Direction of Relative North {deg}
  0,                                      !- X Origin {m}
  0,                                      !- Y Origin {m}
  0,                                      !- Z Origin {m}
  ,                                       !- Building Story Name
  {c3c7ef23-e416-44af-b454-58c2989b85d8}, !- Thermal Zone Name
  Yes,                                    !- Part of Total Floor Area
  {6a856a86-7040-49cf-b2a1-8b3dd417e64e}; !- Design Specification Outdoor Air Object Name

OS:ThermostatSetpoint:DualSetpoint,
  {a2a2f3d2-592d-4299-85ef-99d6cd557156}, !- Handle
  Bldg-Office Dual setpoint,              !- Name
  {7a5cdcee-3216-4b7d-91c8-ad7215efcd0e}, !- Heating Setpoint Temperature Schedule Name
  {d0f4d480-6ee6-42ab-bcfb-45240287820a}, !- Cooling Setpoint Temperature Schedule Name
  0;                                      !- Temperature Difference Between Cutout And Setpoint {deltaC}

OS:Schedule:Year,
  {7a5cdcee-3216-4b7d-91c8-ad7215efcd0e}, !- Handle
  COMNET C-5 Office-HtgSetPt Sched,       !- Name
  {852e50c0-cfc5-496d-a644-873abe053646}, !- Schedule Type Limits Name
  12,                                     !- Month 1
  31,                                     !- Day 1
  {7c11416f-f48b-4943-a673-e9d7f27e0a78}; !- Week Schedule Until Date 1

OS:ScheduleTypeLimits,
  {852e50c0-cfc5-496d-a644-873abe053646}, !- Handle
  Temperature,                            !- Name
  0,                                      !- Lower Limit Value
  200,                                    !- Upper Limit Value
  Continuous,                             !- Numeric Type
  Temperature;                            !- Unit Type

OS:Schedule:Week,
  {7c11416f-f48b-4943-a673-e9d7f27e0a78}, !- Handle
  COMNET C-5 Office-HtgSetPt Week,        !- Name
  ,                                       !- Schedule Rendering Name
  {901f246a-79d0-4c22-8b11-27fc928c106f}, !- Sunday Schedule:Day Name
  {e3ee534c-40cb-4611-a753-ac9bbc36ef31}, !- Monday Schedule:Day Name
  {e3ee534c-40cb-4611-a753-ac9bbc36ef31}, !- Tuesday Schedule:Day Name
  {e3ee534c-40cb-4611-a753-ac9bbc36ef31}, !- Wednesday Schedule:Day Name
  {e3ee534c-40cb-4611-a753-ac9bbc36ef31}, !- Thursday Schedule:Day Name
  {e3ee534c-40cb-4611-a753-ac9bbc36ef31}, !- Friday Schedule:Day Name
  {9dfb59e2-296f-40e8-b092-44a1a5aa5dd8}, !- Saturday Schedule:Day Name
  {901f246a-79d0-4c22-8b11-27fc928c106f}, !- Holiday Schedule:Day Name
  {901f246a-79d0-4c22-8b11-27fc928c106f}, !- SummerDesignDay Schedule:Day Name
  {e3ee534c-40cb-4611-a753-ac9bbc36ef31}, !- WinterDesignDay Schedule:Day Name
  {901f246a-79d0-4c22-8b11-27fc928c106f}, !- CustomDay1 Schedule:Day Name
  {901f246a-79d0-4c22-8b11-27fc928c106f}; !- CustomDay2 Schedule:Day Name

OS:Schedule:Day,
  {901f246a-79d0-4c22-8b11-27fc928c106f}, !- Handle
  COMNET C-5 Office-HtgSetPt Sun,         !- Name
  {852e50c0-cfc5-496d-a644-873abe053646}, !- Schedule Type Limits Name
  ,                                       !- Interpolate to Timestep
  24,                                     !- Hour 1
  0,                                      !- Minute 1
  15.5555555555556;                       !- Value Until Time 1

OS:Schedule:Day,
  {e3ee534c-40cb-4611-a753-ac9bbc36ef31}, !- Handle
  COMNET C-5 Office-HtgSetPt WD,          !- Name
  {852e50c0-cfc5-496d-a644-873abe053646}, !- Schedule Type Limits Name
  ,                                       !- Interpolate to Timestep
  5,                                      !- Hour 1
  0,                                      !- Minute 1
  15.5555555555556,                       !- Value Until Time 1
  6,                                      !- Hour 2
  0,                                      !- Minute 2
  17.7777777777778,                       !- Value Until Time 2
  7,                                      !- Hour 3
  0,                                      !- Minute 3
  19.4444444444444,                       !- Value Until Time 3
  22,                                     !- Hour 4
  0,                                      !- Minute 4
  21.1111111111111,                       !- Value Until Time 4
  24,                                     !- Hour 5
  0,                                      !- Minute 5
  15.5555555555556;                       !- Value Until Time 5

OS:Schedule:Day,
  {9dfb59e2-296f-40e8-b092-44a1a5aa5dd8}, !- Handle
  COMNET C-5 Office-HtgSetPt Sat,         !- Name
  {852e50c0-cfc5-496d-a644-873abe053646}, !- Schedule Type Limits Name
  ,                                       !- Interpolate to Timestep
  5,                                      !- Hour 1
  0,                                      !- Minute 1
  15.5555555555556,                       !- Value Until Time 1
  6,                                      !- Hour 2
  0,                                      !- Minute 2
  17.7777777777778,                       !- Value Until Time 2
  7,                                      !- Hour 3
  0,                                      !- Minute 3
  19.4444444444444,                       !- Value Until Time 3
  17,                                     !- Hour 4
  0,                                      !- Minute 4
  21.1111111111111,                       !- Value Until Time 4
  24,                                     !- Hour 5
  0,                                      !- Minute 5
  15.5555555555556;                       !- Value Until Time 5

OS:YearDescription,
  {86ab5116-b06f-4bb2-b77c-0825c820858e}, !- Handle
  2022,                                   !- Calendar Year
  ,                                       !- Day of Week for Start Day