
OS:Version,
  {769c8865-18b9-493f-b3a9-f4e2fefdf967}, !- Handle
  3.0.0;                                  !- Version Identifier

OS:Site,
  {f1016dfb-aa4e-4378-8e58-990b346b30ae}, !- Handle
  USA IL-CHICAGO-OHARE,                   !- Name
  41.77,                                  !- Latitude {deg}
  -87.75,                                 !- Longitude {deg}
  -6,                                     !- Time Zone {hr}
  190,                                    !- Elevation {m}
  City;                                   !- Terrain

OS:SimulationControl,
  {3876b9cd-d125-402b-8a9c-ce89f85fa2a7}, !- Handle
  Yes,                                    !- Do Zone Sizing Calculation
  Yes,                                    !- Do System Sizing Calculation
  Yes,                                    !- Do Plant Sizing Calculation
  Yes,                                    !- Run Simulation for Sizing Periods
  No,                                     !- Run Simulation for Weather File Run Periods
  0.04,                                   !- Loads Convergence Tolerance Value {W}
  0.2,                                    !- Temperature Convergence Tolerance Value {deltaC}
  FullInteriorAndExterior,                !- Solar Distribution
  25,                                     !- Maximum Number of Warmup Days
  6;                                      !- Minimum Number of Warmup Days

OS:Building,
  {1039d806-d294-4911-a843-6951b716e4ac}, !- Handle
  Ref Bldg Hospital New2004_v1.3_5.0,     !- Name
  ,                                       !- Building Sector Type
  0,                                      !- North Axis {deg}
  ,                                       !- Nominal Floor to Floor Height {m}
  ,                                       !- Space Type Name
  ,                                       !- Default Construction Set Name
  ;                                       !- Default Schedule Set Name

OS:RunPeriod,
  {c8518b95-6f91-4e6e-8caf-b37fbdf9e368}, !- Handle
  Run Period 1,                           !- Name
  1,                                      !- Begin Month
  1,                                      !- Begin Day of Month
  12,                                     !- End Month
  31,                                     !- End Day of Month
  No,                                     !- Use Weather File Holidays and Special Days
  No,                                     !- Use Weather File Daylight Saving Period
  No,                                     !- Apply Weekend Holiday Rule
  Yes,                                    !- Use Weather File Rain Indicators
  Yes,                                    !- Use Weather File Snow Indicators
  ;                                       !- Number of Times Runperiod to be Repeated

OS:YearDescription,
  {aaec8a0d-b7c8-4d1a-9ada-5bd1b41770e9}, !- Handle
  ,                                       !- Calendar Year
  Sunday;                                 !- Day of Week for Start Day

OS:ThermostatSetpoint:DualSetpoint,
  {62dae185-109c-4845-923b-a55b1115d641}, !- Handle
  OR2_Mult5_Flr_2 DualSPSched,            !- Name
  {dd428395-8a48-42f6-8c9a-edf8c120efa1}, !- Heating Setpoint Temperature Schedule Name
  {54346e3c-7e51-4402-b35e-959da49e0457}; !- Cooling Setpoint Temperature Schedule Name

OS:Schedule:Compact,
  {dd428395-8a48-42f6-8c9a-edf8c120efa1}, !- Handle
  OR_HTGSETP_SCH,                         !- Name
  {b5ce1fe7-80de-46be-ab40-1378f8a3b2b5}, !- Schedule Type Limits Name
  Through: 12/31,                         !- Field 1
  For: AllDays,                           !- Field 2
  Until: 24:00,                           !- Field 3
  18.3;                                   !- Field 4

OS:ScheduleTypeLimits,
  {b5ce1fe7-80de-46be-ab40-1378f8a3b2b5}, !- Handle
  Temperature,                            !- Name
  -60,                                    !- Lower Limit Value
  200,                                    !- Upper Limit Value
  CONTINUOUS,                             !- Numeric Type
  Temperature;                            !- Unit Type

OS:Schedule:Compact,
  {54346e3c-7e51-4402-b35e-959da49e0457}, !- Handle
  OR_CLGSETP_SCH,                         !- Name
  {b5ce1fe7-80de-46be-ab40-1378f8a3b2b5}, !- Schedule Type Limits Name
  Through: 12/31,                         !- Field 1
  For: AllDays,                           !- Field 2
  Until: 06:00,                           !- Field 3
  22.2,                                   !- Field 4
  Until: 17:00,                           !- Field 5
  18.3,                                   !- Field 6
  Until: 24:00,                           !- Field 7
  22.2;                                   !- Field 8

OS:RunPeriodControl:DaylightSavingTime,
  {629aa926-6fbc-45ce-b0d4-48d6614d46dc}, !- Handle
  2nd Sunday in March,                    !- Start Date
  1st Sunday in November;                 !- End Date

OS:ScheduleTypeLimits,
  {6816b537-53a6-4ae8-b735-22e57d328eb4}, !- Handle
  {00fb5c92-f026-4320-b8f2-e4f78d742b20}; !- Name

OS:ScheduleTypeLimits,
  {3030992f-75ba-4d98-a320-ae416eab9708}, !- Handle
  Fraction,                               !- Name
  0,                                      !- Lower Limit Value
  1,                                      !- Upper Limit Value
  CONTINUOUS;                             !- Numeric Type

OS:ScheduleTypeLimits,
  {d0e0dd6d-a97a-4b91-9134-66c420cf7f90}, !- Handle
  On/Off,                                 !- Name
  0,                                      !- Lower Limit Value
  1,                                      !- Upper Limit Value
  DISCRETE,                               !- Numeric Type
  Availability;                           !- Unit Type

OS:ScheduleTypeLimits,
  {1cbdbf9e-5fda-4ff5-8314-44e8c55ebce4}, !- Handle
  Control Type,                           !- Name
  0,                                      !- Lower Limit Value
  4,                                      !- Upper Limit Value
  DISCRETE,                               !- Numeric Type
  ControlMode;                            !- Unit Type

OS:ScheduleTypeLimits,
  {29d8ad7d-e490-47a0-8d08-51dfe3686933}, !- Handle
  Humidity,                               !- Name
  10,                                     !- Lower Limit Value
  90,                                     !- Upper Limit Value
  CONTINUOUS;                             !- Numeric Type

OS:ScheduleTypeLimits,
  {f16a5492-2ab1-4ed5-b05e-4fea16f377bd}, !- Handle
  {d219e5c9-ba77-4a6f-a99c-1a317be49832}; !- Name

OS:Schedule:Compact,
  {5eaa30b3-21ea-4205-9661-10c70795bb8e}, !- Handle
  ALWAYS_ON,                              !- Name
  {d0e0dd6d-a97a-4b91-9134-66c420cf7f90}, !- Schedule Type Limits Name
  Through: 12/31,                         !- Field 1
  For: AllDays,                           !- Field 2
  Until: 24:00,                           !- Field 3
  1;                                      !- Field 4

OS:HeatBalanceAlgorithm,
  {b2c5e3ac-1ba1-4bc2-a259-a4b321bfcf03}, !- Handle
  ConductionTransferFunction,             !- Algorithm
  200;                                    !- Surface Temperature Upper Limit {C}

OS:Sizing:Parameters,
  {375367b8-9740-4202-8db1-09683bc270f7}, !- Handle
  1.2,                                    !- Heating Sizing Factor
  1.2,                                    !- Cooling Sizing Factor
  4;                                      !- Timesteps in Averaging Window

OS:ConvergenceLimits,
  {6b5cb98b-2c8a-4515-a283-8dba6765c65b}, !- Handle
  2,                                      !- Minimum System Timestep {minutes}
  25;                                     !- Maximum HVAC Iterations

OS:ShadowCalculation,
  {332b86ae-a020-4c78-9ee3-8a77562d05cb}, !- Handle
  PolygonClipping,                        !- Shading Calculation Method
  Periodic,                               !- Shading Calculation Update Frequency Method
  7,                                      !- Shading Calculation Update Frequency
  15000,                                  !- Maximum Figures in Shadow Overlap Calculations
  ,                                       !- Polygon Clipping Algorithm
  512,                                    !- Pixel Counting Resolution
  ,                                       !- Sky Diffuse Modeling Algorithm
  No,                                     !- Output External Shading Calculation Results
  No,                                     !- Disable Self-Shading Within Shading Zone Groups
  No;                                     !- Disable Self-Shading From Shading Zone Groups to Other Zones

OS:Timestep,
  {e673e74a-4436-4fc5-ba10-32425cb5c518}, !- Handle
  4;                                      !- Number of Timesteps per Hour

OS:SizingPeriod:DesignDay,
  {9b1764b8-2197-4ab3-ab9f-a9fc8ee3174f}, !- Handle
  CHICAGO Ann Htg 99.6% Condns DB,        !- Name
  -20.6,                                  !- Maximum Dry-Bulb Temperature {C}
  0,                                      !- Daily Dry-Bulb Temperature Range {deltaC}
  -20.6,                                  !- Humidity Indicating Conditions at Maximum Dry-Bulb
  99063,                                  !- Barometric Pressure {Pa}
  4.9,                                    !- Wind Speed {m/s}
  270,                                    !- Wind Direction {deg}
  0,                                      !- Sky Clearness
  0,                                      !- Rain Indicator
  0,                                      !- Snow Indicator
  21,                                     !- Day of Month
  1,                                      !- Month
  WinterDesignDay,                        !- Day Type
  0,                                      !- Daylight Saving Time Indicator
  Wetbulb,                                !- Humidity Indicating Type
  ,                                       !- Humidity Indicating Day Schedule Name
  ,                                       !- Dry-Bulb Temperature Range Modifier Type
  ,                                       !- Dry-Bulb Temperature Range Modifier Schedule Name
  ASHRAEClearSky;                         !- Solar Model Indicator

OS:SizingPeriod:DesignDay,
  {f0ed6df1-cddc-44ac-9df3-b28592208acc}, !- Handle
  CHICAGO Ann Clg .4% Condns WB=>MDB,     !- Name
  31.2,                                   !- Maximum Dry-Bulb Temperature {C}
  10.7,                                   !- Daily Dry-Bulb Temperature Range {deltaC}
  25.5,                                   !- Humidity Indicating Conditions at Maximum Dry-Bulb
  99063,                                  !- Barometric Pressure {Pa}
  5.3,                                    !- Wind Speed {m/s}
  230,                                    !- Wind Direction {deg}
  1,                                      !- Sky Clearness
  0,                                      !- Rain Indicator
  0,                                      !- Snow Indicator
  21,                                     !- Day of Month
  7,                                      !- Month
  SummerDesignDay,                        !- Day Type
  0,                                      !- Daylight Saving Time Indicator
  Wetbulb,                                !- Humidity Indicating Type
  ,                                       !- Humidity Indicating Day Schedule Name
  ,                                       !- Dry-Bulb Temperature Range Modifier Type
  ,                                       !- Dry-Bulb Temperature Range Modifier Schedule Name
  ASHRAEClearSky;                         !- Solar Model Indicator

OS:Construction,
  {901cd5b0-4098-439a-9914-42a546a9e711}, !- Handle
  Mass Non-res Ext Wall,                  !- Name
  {3733ebb1-fc42-4736-8fa3-88d71b83d4a9}, !- Surface Rendering Name
  {2e5f9fbf-1798-4c70-b7cc-9a6e5ed80e05}, !- Layer 1
  {24655237-3ffb-4750-b298-835d164eebea}, !- Layer 2
  {66f29f99-aeb7-472a-b4ab-84c654335446}, !- Layer 3
  {a626e0c4-6d4c-49a3-8fea-195a631c63db}; !- Layer 4

OS:Material,
  {2e5f9fbf-1798-4c70-b7cc-9a6e5ed80e05}, !- Handle
  1IN Stucco,                             !- Name
  Smooth,                                 !- Roughness
  0.0253,                                 !- Thickness {m}
  0.6918,                                 !- Conductivity {W/m-K}
  1858,                                   !- Density {kg/m3}
  837,                                    !- Specific Heat {J/kg-K}
  0.9,                                    !- Thermal Absorptance
  0.92,                                   !- Solar Absorptance
  0.92;                                   !- Visible Absorptance

OS:Material,
  {24655237-3ffb-4750-b298-835d164eebea}, !- Handle
  8IN CONCRETE HW,                        !- Name
  Rough,                                  !- Roughness
  0.2032,                                 !- Thickness {m}
  1.311,                                  !- Conductivity {W/m-K}
  2240,                                   !- Density {kg/m3}
  836.8,                                  !- Specific Heat {J/kg-K}
  0.9,                                    !- Thermal Absorptance
  0.7,                                    !- Solar Absorptance
  0.7;                                    !- Visible Absorptance

OS:Material,
  {66f29f99-aeb7-472a-b4ab-84c654335446}, !- Handle
  Mass NonRes Wall Insulation,            !- Name
  MediumRough,                            !- Roughness
  0.0495494599433393,                     !- Thickness {m}
  0.049,                                  !- Conductivity {W/m-K}
  265,                                    !- Density {kg/m3}
  836.8,                                  !- Specific Heat {J/kg-K}
  0.9,                                    !- Thermal Absorptance
  0.7,                                    !- Solar Absorptance
  0.7;                                    !- Visible Absorptance

OS:Material,
  {a626e0c4-6d4c-49a3-8fea-195a631c63db}, !- Handle
  1/2IN Gypsum,                           !- Name
  Smooth,                                 !- Roughness
  0.0127,                                 !- Thickness {m}
  0.16,                                   !- Conductivity {W/m-K}
  784.9,                                  !- Density {kg/m3}
  830,                                    !- Specific Heat {J/kg-K}
  0.9,                                    !- Thermal Absorptance
  0.92,                                   !- Solar Absorptance
  0.92;                                   !- Visible Absorptance

OS:Construction,
  {af8b1a6c-8da7-4e46-a993-1a3779f28cb4}, !- Handle
  IEAD Non-res Roof,                      !- Name
  {b3d9661d-169f-412d-a68b-2cfb362ad410}, !- Surface Rendering Name
  {b579fd5a-a9f2-404b-aa70-a74ebc16d0ec}, !- Layer 1
  {7433534d-7da7-4c6f-9a43-7f1e91dc6b34}, !- Layer 2
  {5865dc66-47cc-4a88-96a1-99c53ee73a7b}; !- Layer 3

OS:Material,
  {b579fd5a-a9f2-404b-aa70-a74ebc16d0ec}, !- Handle
  Roof Membrane,                          !- Name
  VeryRough,                              !- Roughness
  0.0095,                                 !- Thickness {m}
  0.16,                                   !- Conductivity {W/m-K}
  1121.29,                                !- Density {kg/m3}
  1460,                                   !- Specific Heat {J/kg-K}
  0.9,                                    !- Thermal Absorptance
  0.7,                                    !- Solar Absorptance
  0.7;                                    !- Visible Absorptance

OS:Material,
  {7433534d-7da7-4c6f-9a43-7f1e91dc6b34}, !- Handle
  IEAD NonRes Roof Insulation,            !- Name
  MediumRough,                            !- Roughness
  0.127338688569477,                      !- Thickness {m}
  0.049,                                  !- Conductivity {W/m-K}
  265,                                    !- Density {kg/m3}
  836.8,                                  !- Specific Heat {J/kg-K}
  0.9,                                    !- Thermal Absorptance
  0.7,                                    !- Solar Absorptance
  0.7;                                    !- Visible Absorptance

OS:Material,
  {5865dc66-47cc-4a88-96a1-99c53ee73a7b}, !- Handle
  Metal Decking,                          !- Name
  MediumSmooth,                           !- Roughness
  0.0015,                                 !- Thickness {m}
  45.006,                                 !- Conductivity {W/m-K}
  7680,                                   !- Density {kg/m3}
  418.4,                                  !- Specific Heat {J/kg-K}
  0.9,                                    !- Thermal Absorptance
  0.7,                                    !- Solar Absorptance
  0.3;                                    !- Visible Absorptance

OS:Construction,
  {72cda1f7-b1ec-4338-8300-c9e9a27a3989}, !- Handle
  ext-slab,                               !- Name
  {edabb51b-5bf9-459d-b968-2593681d0084}, !- Surface Rendering Name
  {0145a2a0-322c-40df-a7cd-ec02c111dc0c}; !- Layer 1

OS:Material,
  {0145a2a0-322c-40df-a7cd-ec02c111dc0c}, !- Handle
  HW CONCRETE,                            !- Name
  Rough,                                  !- Roughness
  0.1016,                                 !- Thickness {m}
  1.311,                                  !- Conductivity {W/m-K}
  2240,                                   !- Density {kg/m3}
  836.8,                                  !- Specific Heat {J/kg-K}
  0.9,                                    !- Thermal Absorptance
  0.7,                                    !- Solar Absorptance
  0.7;                                    !- Visible Absorptance

OS:Construction,
  {3c0077af-59d5-4ad5-af1b-0bcaa2501d88}, !- Handle
  int-walls,                              !- Name
  {afc6fb03-9e29-437e-b2ba-26dc18ea829e}, !- Surface Rendering Name
  {a626e0c4-6d4c-49a3-8fea-195a631c63db}, !- Layer 1
  {a626e0c4-6d4c-49a3-8fea-195a631c63db}; !- Layer 2

OS:Construction,
  {0b362d13-b3cb-4fa2-8140-4177266a382f}, !- Handle
  INT-FLOOR-TOPSIDE,                      !- Name
  {22e76931-efc0-42f2-a5c5-773c0e86cd12}, !- Surface Rendering Name
  {76fa9c1d-233a-4f86-a251-da7ae589fc88}, !- Layer 1
  {67a7fb96-734b-4348-a1c1-8c17cdf1b33a}; !- Layer 2

OS:Material,
  {76fa9c1d-233a-4f86-a251-da7ae589fc88}, !- Handle
  MAT-CC05 4 HW CONCRETE,                 !- Name
  Rough,                                  !- Roughness
  0.1016,                                 !- Thickness {m}
  1.311,                                  !- Conductivity {W/m-K}
  2240,                                   !- Density {kg/m3}
  836.8,                                  !- Specific Heat {J/kg-K}
  0.9,                                    !- Thermal Absorptance
  0.7,                                    !- Solar Absorptance
  0.7;                                    !- Visible Absorptance

OS:Material:NoMass,
  {67a7fb96-734b-4348-a1c1-8c17cdf1b33a}, !- Handle
  CP02 CARPET PAD,                        !- Name
  VeryRough,                              !- Roughness
  0.2165,                                 !- Thermal Resistance {m2-K/W}
  0.9,                                    !- Thermal Absorptance
  0.7,                                    !- Solar Absorptance
  0.8;                                    !- Visible Absorptance

OS:Construction,
  {d3d47ff3-a664-497f-a228-cfeba338a12b}, !- Handle
  INT-FLOOR-UNDERSIDE,                    !- Name
  {38d50a9f-13e8-4071-aacb-562afb31066e}, !- Surface Rendering Name
  {67a7fb96-734b-4348-a1c1-8c17cdf1b33a}, !- Layer 1
  {76fa9c1d-233a-4f86-a251-da7ae589fc88}; !- Layer 2

OS:Construction,
  {f1394c3f-03bf-467b-864d-545d22c51c45}, !- Handle
  Underground Wall Non-res,               !- Name
  {eef16662-78a0-41b6-9b87-50e2c0b8bf6a}, !- Surface Rendering Name
  {24655237-3ffb-4750-b298-835d164eebea}, !- Layer 1
  {5f351286-6b1b-4edc-b9f2-ec60cd44a59a}; !- Layer 2

OS:Material,
  {5f351286-6b1b-4edc-b9f2-ec60cd44a59a}, !- Handle
  UGWall NonRes Insulation,               !- Name
  MediumRough,                            !- Roughness
  0.0001,                                 !- Thickness {m}
  0.049,                                  !- Conductivity {W/m-K}
  265,                                    !- Density {kg/m3}
  836.8,                                  !- Specific Heat {J/kg-K}
  0.9,                                    !- Thermal Absorptance
  0.7,                                    !- Solar Absorptance
  0.7;                                    !- Visible Absorptance

OS:Schedule:Compact,
  {9f2acd30-d69e-4259-9a4e-6da265fd0a6f}, !- Handle
  CRITICAL_CLGSETP_SCH,                   !- Name
  {b5ce1fe7-80de-46be-ab40-1378f8a3b2b5}, !- Schedule Type Limits Name
  Through: 12/31,                         !- Field 1
  For: AllDays,                           !- Field 2
  Until: 24:00,                           !- Field 3
  22.2;                                   !- Field 4

OS:Construction,
  {8d737721-531f-421b-984e-22f4ce1d019a}, !- Handle
  Window Non-res Fixed,                   !- Name
  {bc37f36a-0f26-4e83-9d1d-d398ef420a56}, !- Surface Rendering Name
  {31b03037-8b16-4e27-879c-e4ec4be043d8}; !- Layer 1

OS:WindowMaterial:SimpleGlazingSystem,
  {31b03037-8b16-4e27-879c-e4ec4be043d8}, !- Handle
  NonRes Fixed Assembly Window,           !- Name
  3.23646,                                !- U-Factor {W/m2-K}
  0.39;                                   !- Solar Heat Gain Coefficient

OS:Construction,
  {7aab2fef-5aaa-4a3b-9032-0275bd2503a1}, !- Handle
  Window Res Fixed,                       !- Name
  {c4d1db5a-1673-4013-b340-9c2c33be6a6e}, !- Surface Rendering Name
  {696aeebb-354b-490e-bd38-4c63c62c41e2}; !- Layer 1

OS:WindowMaterial:SimpleGlazingSystem,
  {696aeebb-354b-490e-bd38-4c63c62c41e2}, !- Handle
  Res Fixed Assembly Window,              !- Name
  3.23646,                                !- U-Factor {W/m2-K}
  0.39;                                   !- Solar Heat Gain Coefficient

OS:Construction,
  {998b015d-fd8a-4f7d-abc8-fd9a32a7664e}, !- Handle
  AIR-WALL,                               !- Name
  {dc0be529-7350-4966-96ac-c79446633181}, !- Surface Rendering Name
  {cc088096-453b-44b9-8fe7-3f24dfb2e217}; !- Layer 1

OS:Material:NoMass,
  {cc088096-453b-44b9-8fe7-3f24dfb2e217}, !- Handle
  MAT-AIR-WALL,                           !- Name
  Rough,                                  !- Roughness
  0.2079491,                              !- Thermal Resistance {m2-K/W}
  0.9,                                    !- Thermal Absorptance
  0.7;                                    !- Solar Absorptance

OS:Surface,
  {e5031382-cf79-4c16-9b13-b13f6f1815cf}, !- Handle
  IC_PatRoom2_Flr_2_Wall_East,            !- Name
  Wall,                                   !- Surface Type
  {3c0077af-59d5-4ad5-af1b-0bcaa2501d88}, !- Construction Name
  {3465a046-8787-4e4e-bf5c-e84756a0526a}, !- Space Name
  Adiabatic,                              !- Outside Boundary Condition
  ,                                       !- Outside Boundary Condition Object
  NoSun,                                  !- Sun Exposure
  NoWind,                                 !- Wind Exposure
  ,                                       !- View Factor to Ground
  ,                                       !- Number of Vertices
  6.096, 48.768, 8.5366,                  !- X,Y,Z Vertex 1 {m}
  6.096, 48.768, 4.2683,                  !- X,Y,Z Vertex 2 {m}
  6.096, 53.34, 4.2683,                   !- X,Y,Z Vertex 3 {m}
  6.096, 53.34, 8.5366;                   !- X,Y,Z Vertex 4 {m}

OS:ThermalZone,
  {dde712fb-72a7-410f-af62-c353931b4a34}, !- Handle
  IC_PatRoom2_Flr_2 Thermal Zone,         !- Name
  1,                                      !- Multiplier
  ,                                       !- Ceiling Height {m}
  ,                                       !- Volume {m3}
  ,                                       !- Floor Area {m2}
  ,                                       !- Zone Inside Convection Algorithm
  ,                                       !- Zone Outside Convection Algorithm
  ,                                       !- Zone Conditioning Equipment List Name
  {8af31050-cfee-4997-84ba-b214a605dd80}, !- Zone Air Inlet Port List
  {1f35f414-2e88-4083-90cd-3935191c3f8a}, !- Zone Air Exhaust Port List
  {b714e26d-e6d0-4068-8c64-893467204686}, !- Zone Air Node Name
  {2bb247d0-45cd-4725-9b3d-3db4f5bc2b6b}, !- Zone Return Air Port List
  ,                                       !- Primary Daylighting Control Name
  ,                                       !- Fraction of Zone Controlled by Primary Daylighting Control
  ,                                       !- Secondary Daylighting Control Name
  ,                                       !- Fraction of Zone Controlled by Secondary Daylighting Control
  ,                                       !- Illuminance Map Name
  {08318a38-f941-4b08-be3c-74da9cc3bff5}, !- Group Rendering Name
  {c8246d04-9f08-4b3a-825e-1b9902933957}, !- Thermostat Name
  No;                                     !- Use Ideal Air Loads

OS:Node,
  {e9b953c0-3757-4269-ac42-2f328b4dad2c}, !- Handle
  {2d15ae58-52b9-457c-b4ab-2a5f77e2d246}, !- Name
  {b714e26d-e6d0-4068-8c64-893467204686}, !- Inlet Port
  ;                                       !- Outlet Port

OS:Connection,
  {b714e26d-e6d0-4068-8c64-893467204686}, !- Handle
  {a39b116b-292e-413a-8315-8af74ffd9406}, !- Name
  {dde712fb-72a7-410f-af62-c353931b4a34}, !- Source Object
  11,                                     !- Outlet Port
  {e9b953c0-3757-4269-ac42-2f328b4dad2c}, !- Target Object
  2;                                      !- Inlet Port

OS:PortList,
  {8af31050-cfee-4997-84ba-b214a605dd80}, !- Handle
  {3bb4cde7-0ef5-4692-93f5-dd5f681adc79}, !- Name
  {dde712fb-72a7-410f-af62-c353931b4a34}; !- HVAC Component

OS:PortList,
  {1f35f414-2e88-4083-90cd-3935191c3f8a}, !- Handle
  {86bfa868-df9e-48ec-8040-0a896166ecd5}, !- Name
  {dde712fb-72a7-410f-af62-c353931b4a34}; !- HVAC Component

OS:PortList,
  {2bb247d0-45cd-4725-9b3d-3db4f5bc2b6b}, !- Handle
  {1904a919-ed21-421c-805a-c12938ce5e2a}, !- Name
  {dde712fb-72a7-410f-af62-c353931b4a34}; !- HVAC Component

OS:Sizing:Zone,
  {f9f8fdfc-5484-46e1-a776-7f309df17d92}, !- Handle
  {dde712fb-72a7-410f-af62-c353931b4a34}, !- Zone or ZoneList Name
  SupplyAirTemperature,                   !- Zone Cooling Design Supply Air Temperature Input Method
  11.1,                                   !- Zone Cooling Design Supply Air Temperature {C}
  11.11,                                  !- Zone Cooling Design Supply Air Temperature Difference {deltaC}
  SupplyAirTemperature,                   !- Zone Heating Design Supply Air Temperature Input Method
  50,                                     !- Zone Heating Design Supply Air Temperature {C}
  11.11,                                  !- Zone Heating Design Supply Air Temperature Difference {deltaC}
  0.0085,                                 !- Zone Cooling Design Supply Air Humidity Ratio {kg-H2O/kg-air}
  0.008,                                  !- Zone Heating Design Supply Air Humidity Ratio {kg-H2O/kg-air}
  ,                                       !- Zone Heating Sizing Factor
  ,                                       !- Zone Cooling Sizing Factor
  DesignDayWithLimit,                     !- Cooling Design Air Flow Method
  ,                                       !- Cooling Design Air Flow Rate {m3/s}
  ,                                       !- Cooling Minimum Air Flow per Zone Floor Area {m3/s-m2}
  0.198267,                               !- Cooling Minimum Air Flow {m3/s}
  ,                                       !- Cooling Minimum Air Flow Fraction
  DesignDay,                              !- Heating Design Air Flow Method
  ,                                       !- Heating Design Air Flow Rate {m3/s}
  ,                                       !- Heating Maximum Air Flow per Zone Floor Area {m3/s-m2}
  ,                                       !- Heating Maximum Air Flow {m3/s}
  ,                                       !- Heating Maximum Air Flow Fraction
  No,                                     !- Account for Dedicated Outdoor Air System
  NeutralSupplyAir,                       !- Dedicated Outdoor Air System Control Strategy
  autosize,                               !- Dedicated Outdoor Air Low Setpoint Temperature for Design {C}
  autosize;                               !- Dedicated Outdoor Air High Setpoint Temperature for Design {C}

OS:ZoneHVAC:EquipmentList,
  {30897c9b-9ae1-49a2-bef9-787ff58342bf}, !- Handle
  {7389acf8-fdbf-4344-ab65-3fa8eabae303}, !- Name
  {dde712fb-72a7-410f-af62-c353931b4a34}; !- Thermal Zone

OS:Space,
  {3465a046-8787-4e4e-bf5c-e84756a0526a}, !- Handle
  IC_PatRoom2_Flr_2,                      !- Name
  ,                                       !- Space Type Name
  ,                                       !- Default Construction Set Name
  ,                                       !- Default Schedule Set Name
  0,                                      !- Direction of Relative North {deg}
  0,                                      !- X Origin {m}
  0,                                      !- Y Origin {m}
  0,                                      !- Z Origin {m}
  ,                                       !- Building Story Name
  {dde712fb-72a7-410f-af62-c353931b4a34}, !- Thermal Zone Name
  Yes,                                    !- Part of Total Floor Area
  {25d35320-77c1-45c5-9121-39794fafb3fe}; !- Design Specification Outdoor Air Object Name

OS:ThermostatSetpoint:DualSetpoint,
  {c8246d04-9f08-4b3a-825e-1b9902933957}, !- Handle
  IC_PatRoom2_Flr_2 DualSPSched,          !- Name
  {6a7100c5-cadc-4238-9a41-98dcdfbba030}, !- Heating Setpoint Temperature Schedule Name
  {9f2acd30-d69e-4259-9a4e-6da265fd0a6f}; !- Cooling Setpoint Temperature Schedule Name

OS:Schedule:Compact,
  {6a7100c5-cadc-4238-9a41-98dcdfbba030}, !- Handle
  CRITICAL_HTGSETP_SCH,                   !- Name
  {b5ce1fe7-80de-46be-ab40-1378f8a3b2b5}, !- Schedule Type Limits Name
  Through: 12/31,                         !- Field 1
  For: ALLDays,                           !- Field 2
  Until: 24:00,                           !- Field 3
  21.1;                                   !- Field 4

OS:Construction,