
OS:Version,
  {1eaccee2-3472-48ff-ab11-3a275f38be92}, !- Handle
  3.0.0;                                  !- Version Identifier

OS:Site,
  {caa73567-d7a8-40de-a2b0-3aedd46ed57c}, !- Handle
  USA IL-CHICAGO-OHARE,                   !- Name
  41.77,                                  !- Latitude {deg}
  -87.75,                                 !- Longitude {deg}
  -6,                                     !- Time Zone {hr}
  190,                                    !- Elevation {m}
  City;                                   !- Terrain

OS:SimulationControl,
  {67245221-b7d9-4660-9da4-bcf444704ac2}, !- Handle
  Yes,                                    !- Do Zone Sizing Calculation
  Yes,                                    !- Do System Sizing Calculation
  Yes,                                    !- Do Plant Sizing Calculation
  Yes,                                    !- Run Simulation for Sizing Periods
  No,                                     !- Run Simulation for Weather File Run Periods
  0.04,                                   !- Loads Convergence Tolerance Value {W}
  0.2,                                    !- Temperature Convergence Tolerance Value {deltaC}
  FullInteriorAndExterior,                !- Solar Distribution
  25,                                     !- Maximum Number of Warmup Days
  6;                                      !- Minimum Number of Warmup Days

OS:Building,
  {54091b63-0c2d-4e71-931b-453014376360}, !- Handle
  Ref Bldg Large Hotel New2004_v1.3_5.0,  !- Name
  ,                                       !- Building Sector Type
  0,                                      !- North Axis {deg}
  ,                                       !- Nominal Floor to Floor Height {m}
  ,                                       !- Space Type Name
  ,                                       !- Default Construction Set Name
  ;                                       !- Default Schedule Set Name

OS:RunPeriod,
  {e34ae3ff-ca4b-49b3-99d8-0ca78e2f05cf}, !- Handle
  Run Period 1,                           !- Name
  1,                                      !- Begin Month
  1,                                      !- Begin Day of Month
  12,                                     !- End Month
  31,                                     !- End Day of Month
  No,                                     !- Use Weather File Holidays and Special Days
  No,                                     !- Use Weather File Daylight Saving Period
  No,                                     !- Apply Weekend Holiday Rule
  Yes,                                    !- Use Weather File Rain Indicators
  Yes,                                    !- Use Weather File Snow Indicators
  ;                                       !- Number of Times Runperiod to be Repeated

OS:YearDescription,
  {afc76bb2-3f64-4282-b9a9-9db2e2af0af2}, !- Handle
  ,                                       !- Calendar Year
  Sunday;                                 !- Day of Week for Start Day

OS:RunPeriodControl:DaylightSavingTime,
  {d313513b-ce84-4c51-a2d2-42cf15f37093}, !- Handle
  2nd Sunday in March,                    !- Start Date
  1st Sunday in November;                 !- End Date

OS:People:Definition,
  {cd2e13b6-3508-4187-863d-4e9d94b82d47}, !- Handle
  Kitchen_Flr_6 People Definition,        !- Name
  People,                                 !- Number of People Calculation Method
  5.56,                                   !- Number of People {people}
  ,                                       !- People per Space Floor Area {person/m2}
  ,                                       !- Space Floor Area per Person {m2/person}
  0.3,                                    !- Fraction Radiant
  ,                                       !- Sensible Heat Fraction
  ,                                       !- Carbon Dioxide Generation Rate {m3/s-W}
  No,                                     !- Enable ASHRAE 55 Comfort Warnings
  ZoneAveraged,                           !- Mean Radiant Temperature Calculation Type
  FANGER;                                 !- Thermal Comfort Model Type 1

OS:People,
  {0b690622-0308-4891-8550-0a550570fd8b}, !- Handle
  Kitchen_Flr_6 People,                   !- Name
  {cd2e13b6-3508-4187-863d-4e9d94b82d47}, !- People Definition Name
  {4a7b6872-de27-47cd-ba13-1b45e4d7c1ae}, !- Space or SpaceType Name
  {024b25ea-bf0b-42cd-a811-c5fa9659bcb0}, !- Number of People Schedule Name
  {635d5fff-f7c2-47ac-b99c-8de9f60b5be8}, !- Activity Level Schedule Name
  ,                                       !- Surface Name/Angle Factor List Name
  {45a3ec20-04d0-494b-9cf2-30d4eb39d353}, !- Work Efficiency Schedule Name
  {b18b059c-b1b0-4532-bcbe-884c22f3930e}, !- Clothing Insulation Schedule Name
  {d19a8763-5a82-4726-83df-f5be0f7a37e0}, !- Air Velocity Schedule Name
  1;                                      !- Multiplier

OS:ThermalZone,
  {b5ba8f32-239e-464b-a628-1d702bbe2db7}, !- Handle
  Kitchen_Flr_6 Thermal Zone,             !- Name
  1,                                      !- Multiplier
  ,                                       !- Ceiling Height {m}
  ,                                       !- Volume {m3}
  ,                                       !- Floor Area {m2}
  ,                                       !- Zone Inside Convection Algorithm
  ,                                       !- Zone Outside Convection Algorithm
  ,                                       !- Zone Conditioning Equipment List Name
  {591202ef-80e4-4f2c-8ee7-c9f8f8db0479}, !- Zone Air Inlet Port List
  {921d657b-ef96-4015-8334-83066f65c07d}, !- Zone Air Exhaust Port List
  {3872931a-1a76-40b0-801c-4a4498b08772}, !- Zone Air Node Name
  {38741812-8c6f-4089-9871-11de729be7eb}, !- Zone Return Air Port List
  ,                                       !- Primary Daylighting Control Name
  ,                                       !- Fraction of Zone Controlled by Primary Daylighting Control
  ,                                       !- Secondary Daylighting Control Name
  ,                                       !- Fraction of Zone Controlled by Secondary Daylighting Control
  ,                                       !- Illuminance Map Name
  {f62579b7-065e-47e5-bfd7-ea9255d8a198}, !- Group Rendering Name
  {40e97447-1651-4598-ae93-0d7b1d79870e}, !- Thermostat Name
  No;                                     !- Use Ideal Air Loads

OS:Node,
  {a065ceec-697f-4e44-addc-fd86e81ca2dd}, !- Handle
  {d25140ba-dd46-477e-afa6-97aa1226f4bd}, !- Name
  {3872931a-1a76-40b0-801c-4a4498b08772}, !- Inlet Port
  ;                                       !- Outlet Port

OS:Connection,
  {3872931a-1a76-40b0-801c-4a4498b08772}, !- Handle
  {3177030b-28b0-45a3-bd8e-0e4c3a654f2c}, !- Name
  {b5ba8f32-239e-464b-a628-1d702bbe2db7}, !- Source Object
  11,                                     !- Outlet Port
  {a065ceec-697f-4e44-addc-fd86e81ca2dd}, !- Target Object
  2;                                      !- Inlet Port

OS:PortList,
  {591202ef-80e4-4f2c-8ee7-c9f8f8db0479}, !- Handle
  {6238819c-e977-4088-831b-49218f411b2d}, !- Name
  {b5ba8f32-239e-464b-a628-1d702bbe2db7}; !- HVAC Component

OS:PortList,
  {921d657b-ef96-4015-8334-83066f65c07d}, !- Handle
  {c642bbb2-fe50-434f-be11-426496a78f6f}, !- Name
  {b5ba8f32-239e-464b-a628-1d702bbe2db7}; !- HVAC Component

OS:PortList,
  {38741812-8c6f-4089-9871-11de729be7eb}, !- Handle
  {08fc3709-0b29-4a5a-8bc3-99d5c9948dd5}, !- Name
  {b5ba8f32-239e-464b-a628-1d702bbe2db7}; !- HVAC Component

OS:Sizing:Zone,
  {b3bb97a4-3674-4730-99af-21f5fa95066d}, !- Handle
  {b5ba8f32-239e-464b-a628-1d702bbe2db7}, !- Zone or ZoneList Name
  SupplyAirTemperature,                   !- Zone Cooling Design Supply Air Temperature Input Method
  14,                                     !- Zone Cooling Design Supply Air Temperature {C}
  11.11,                                  !- Zone Cooling Design Supply Air Temperature Difference {deltaC}
  SupplyAirTemperature,                   !- Zone Heating Design Supply Air Temperature Input Method
  40,                                     !- Zone Heating Design Supply Air Temperature {C}
  11.11,                                  !- Zone Heating Design Supply Air Temperature Difference {deltaC}
  0.0085,                                 !- Zone Cooling Design Supply Air Humidity Ratio {kg-H2O/kg-air}
  0.008,                                  !- Zone Heating Design Supply Air Humidity Ratio {kg-H2O/kg-air}
  ,                                       !- Zone Heating Sizing Factor
  ,                                       !- Zone Cooling Sizing Factor
  DesignDay,                              !- Cooling Design Air Flow Method
  ,                                       !- Cooling Design Air Flow Rate {m3/s}
  ,                                       !- Cooling Minimum Air Flow per Zone Floor Area {m3/s-m2}
  ,                                       !- Cooling Minimum Air Flow {m3/s}
  ,                                       !- Cooling Minimum Air Flow Fraction
  DesignDay,                              !- Heating Design Air Flow Method
  ,                                       !- Heating Design Air Flow Rate {m3/s}
  ,                                       !- Heating Maximum Air Flow per Zone Floor Area {m3/s-m2}
  ,                                       !- Heating Maximum Air Flow {m3/s}
  ,                                       !- Heating Maximum Air Flow Fraction
  No,                                     !- Account for Dedicated Outdoor Air System
  NeutralSupplyAir,                       !- Dedicated Outdoor Air System Control Strategy
  autosize,                               !- Dedicated Outdoor Air Low Setpoint Temperature for Design {C}
  autosize;                               !- Dedicated Outdoor Air High Setpoint Temperature for Design {C}

OS:ZoneHVAC:EquipmentList,
  {43f0a871-c4f3-412c-aa28-67392f552f2c}, !- Handle
  {89b6473a-70e3-4e63-a844-e7dab5e97661}, !- Name
  {b5ba8f32-239e-464b-a628-1d702bbe2db7}; !- Thermal Zone

OS:Space,
  {4a7b6872-de27-47cd-ba13-1b45e4d7c1ae}, !- Handle
  Kitchen_Flr_6,                          !- Name
  ,                                       !- Space Type Name
  ,                                       !- Default Construction Set Name
  ,                                       !- Default Schedule Set Name
  0,                                      !- Direction of Relative North {deg}
  0,                                      !- X Origin {m}
  0,                                      !- Y Origin {m}
  0,                                      !- Z Origin {m}
  ,                                       !- Building Story Name
  {b5ba8f32-239e-464b-a628-1d702bbe2db7}, !- Thermal Zone Name
  Yes,                                    !- Part of Total Floor Area
  {2b14af65-7e86-41c4-b6e9-fd793677c696}; !- Design Specification Outdoor Air Object Name

OS:ThermostatSetpoint:DualSetpoint,
  {40e97447-1651-4598-ae93-0d7b1d79870e}, !- Handle
  Kitchen_Flr_6 DualSPSched,              !- Name
  {44791a57-f7f0-47c1-bce2-c75729677367}, !- Heating Setpoint Temperature Schedule Name
  {2e340601-2444-447a-8796-f5a29107f721}; !- Cooling Setpoint Temperature Schedule Name

OS:Schedule:Compact,
  {44791a57-f7f0-47c1-bce2-c75729677367}, !- Handle
  Kitchen_HTGSETP_SCH,                    !- Name
  {1f68b1c7-084b-4bf7-b033-9d325f9494ba}, !- Schedule Type Limits Name
  Through: 12/31,                         !- Field 1
  For: AllDays,                           !- Field 2
  Until: 07:00,                           !- Field 3
  16,                                     !- Field 4
  Until: 24:00,                           !- Field 5
  19;                                     !- Field 6

OS:ScheduleTypeLimits,
  {1f68b1c7-084b-4bf7-b033-9d325f9494ba}, !- Handle
  Temperature,                            !- Name
  -60,                                    !- Lower Limit Value
  200,                                    !- Upper Limit Value
  CONTINUOUS,                             !- Numeric Type
  Temperature;                            !- Unit Type

OS:Schedule:Compact,
  {2e340601-2444-447a-8796-f5a29107f721}, !- Handle
  Kitchen_CLGSETP_SCH,                    !- Name
  {1f68b1c7-084b-4bf7-b033-9d325f9494ba}, !- Schedule Type Limits Name
  Through: 12/31,                         !- Field 1
  For: AllDays,                           !- Field 2
  Until: 07:00,                           !- Field 3
  30,                                     !- Field 4
  Until: 24:00,                           !- Field 5
  26;                                     !- Field 6

OS:Schedule:Compact,
  {024b25ea-bf0b-42cd-a811-c5fa9659bcb0}, !- Handle
  BLDG_OCC_SCH,                           !- Name
  {db7a3a4e-2cf1-44ff-8462-6e5b10f76199}, !- Schedule Type Limits Name
  Through: 12/31,                         !- Field 1
  For: Weekdays,                          !- Field 2
  Until: 06:00,                           !- Field 3
  0.9,                                    !- Field 4
  Until: 07:00,                           !- Field 5
  0.7,                                    !- Field 6
  Until: 09:00,                           !- Field 7
  0.4,                                    !- Field 8
  Until: 15:00,                           !- Field 9
  0.2,                                    !- Field 10
  Until: 16:00,                           !- Field 11
  0.3,                                    !- Field 12
  Until: 19:00,                           !- Field 13
  0.5,                                    !- Field 14
  Until: 21:00,                           !- Field 15
  0.7,                                    !- Field 16
  Until: 22:00,                           !- Field 17
  0.8,                                    !- Field 18
  Until: 24:00,                           !- Field 19
  0.9,                                    !- Field 20
  For: SummerDesignDay,                   !- Field 21
  Until: 24:00,                           !- Field 22
  1.0,                                    !- Field 23
  For: Saturday,                          !- Field 24
  Until: 06:00,                           !- Field 25
  0.9,                                    !- Field 26
  Until: 07:00,                           !- Field 27
  0.7,                                    !- Field 28
  Until: 09:00,                           !- Field 29
  0.5,                                    !- Field 30
  Until: 17:00,                           !- Field 31
  0.3,                                    !- Field 32
  Until: 18:00,                           !- Field 33
  0.5,                                    !- Field 34
  Until: 21:00,                           !- Field 35
  0.6,                                    !- Field 36
  Until: 24:00,                           !- Field 37
  0.7,                                    !- Field 38
  For: WinterDesignDay,                   !- Field 39
  Until: 24:00,                           !- Field 40
  0.0,                                    !- Field 41
  For: Sunday Holidays AllOtherDays,      !- Field 42
  Until: 08:00,                           !- Field 43
  0.7,                                    !- Field 44
  Until: 11:00,                           !- Field 45
  0.5,                                    !- Field 46
  Until: 13:00,                           !- Field 47
  0.3,                                    !- Field 48
  Until: 16:00,                           !- Field 49
  0.2,                                    !- Field 50
  Until: 17:00,                           !- Field 51
  0.3,                                    !- Field 52
  Until: 19:00,                           !- Field 53
  0.4,                                    !- Field 54
  Until: 21:00,                           !- Field 55
  0.6,                                    !- Field 56
  Until: 24:00,                           !- Field 57
  0.8;                                    !- Field 58

OS:ScheduleTypeLimits,
  {db7a3a4e-2cf1-44ff-8462-6e5b10f76199}, !- Handle
  Fraction,                               !- Name
  0,                                      !- Lower Limit Value
  1,                                      !- Upper Limit Value
  CONTINUOUS;                             !- Numeric Type

OS:Schedule:Compact,
  {635d5fff-f7c2-47ac-b99c-8de9f60b5be8}, !- Handle
  ACTIVITY_SCH,                           !- Name
  {673fb76e-69aa-49e8-93fc-991fc95e85e0}, !- Schedule Type Limits Name
  Through: 12/31,                         !- Field 1
  For: AllDays,                           !- Field 2
  Until: 24:00,                           !- Field 3
  120.;                                   !- Field 4

OS:ScheduleTypeLimits,
  {ec8b1f88-3b6c-4477-b2a7-c85cb9172332}, !- Handle
  {d3046b24-cff9-4ed6-86c6-f5f0603bdcd4}; !- Name

OS:ScheduleTypeLimits,
  {673fb76e-69aa-49e8-93fc-991fc95e85e0}, !- Handle
  ActivityLevel,                          !- Name
  0,                                      !- Lower Limit Value
  ,                                       !- Upper Limit Value
  Continuous,                             !- Numeric Type
  ActivityLevel;                          !- Unit Type

OS:Schedule:Compact,
  {45a3ec20-04d0-494b-9cf2-30d4eb39d353}, !- Handle
  WORK_EFF_SCH,                           !- Name
  {db7a3a4e-2cf1-44ff-8462-6e5b10f76199}, !- Schedule Type Limits Name
  Through: 12/31,                         !- Field 1
  For: AllDays,                           !- Field 2
  Until: 24:00,                           !- Field 3
  0.0;                                    !- Field 4

OS:Schedule:Compact,
  {b18b059c-b1b0-4532-bcbe-884c22f3930e}, !- Handle
  CLOTHING_SCH,                           !- Name
  {c9970b16-2657-4a28-8d47-bd6353b863ee}, !- Schedule Type Limits Name
  Through: 04/30,                         !- Field 1
  For: AllDays,                           !- Field 2
  Until: 24:00,                           !- Field 3
  1.0,                                    !- Field 4
  Through: 09/30,                         !- Field 5
  For: AllDays,                           !- Field 6
  Until: 24:00,                           !- Field 7
  0.5,                                    !- Field 8
  Through: 12/31,                         !- Field 9
  For: AllDays,                           !- Field 10
  Until: 24:00,                           !- Field 11
  1.0;                                    !- Field 12

OS:ScheduleTypeLimits,
  {865c4b07-76f2-460b-880d-b50670ac91cd}, !- Handle
  {9294913a-646a-4b49-a759-ad72f447cd1a}; !- Name

OS:ScheduleTypeLimits,
  {c9970b16-2657-4a28-8d47-bd6353b863ee}, !- Handle
  ClothingInsulation,                     !- Name
  0,                                      !- Lower Limit Value
  ,                                       !- Upper Limit Value
  Continuous,                             !- Numeric Type
  ClothingInsulation;                     !- Unit Type

OS:Schedule:Compact,
  {d19a8763-5a82-4726-83df-f5be0f7a37e0}, !- Handle
  AIR_VELO_SCH,                           !- Name
  {0eb7767c-099f-4644-88c2-dd5983d41fbd}, !- Schedule Type Limits Name
  Through: 12/31,                         !- Field 1
  For: AllDays,                           !- Field 2
  Until: 24:00,                           !- Field 3
  0.2;                                    !- Field 4

OS:ScheduleTypeLimits,
  {aa0b09ce-4316-435b-a620-0eddff9b6ccd}, !- Handle
  {8fd35fad-2a14-4b35-a45d-bf13e1b5847e}; !- Name

OS:ScheduleTypeLimits,
  {0eb7767c-099f-4644-88c2-dd5983d41fbd}, !- Handle
  Velocity,                               !- Name
  0,                                      !- Lower Limit Value
  ,                                       !- Upper Limit Value
  Continuous,                             !- Numeric Type
  Velocity;                               !- Unit Type

OS:ScheduleTypeLimits,
  {15aa1528-d80c-49c8-8a6a-2a32abc72986}, !- Handle
  {e015d608-3947-4e36-b16f-da39465c5015}; !- Name

OS:ScheduleTypeLimits,
  {0d5f1958-42a0-4db4-9fe7-f516fcfc6a45}, !- Handle
  On/Off,                                 !- Name
  0,                                      !- Lower Limit Value
  1,                                      !- Upper Limit Value
  DISCRETE,                               !- Numeric Type
  Availability;                           !- Unit Type

OS:ScheduleTypeLimits,
  {7da375a3-9afa-469f-acea-3a6e78864fe6}, !- Handle
  Control Type,                           !- Name
  0,                                      !- Lower Limit Value
  4,                                      !- Upper Limit Value
  DISCRETE,                               !- Numeric Type
  ControlMode;                            !- Unit Type

OS:ScheduleTypeLimits,
  {f0cc53a6-55db-4652-be29-3c24405a7532}, !- Handle
  Humidity,                               !- Name
  10,                                     !- Lower Limit Value
  90,                                     !- Upper Limit Value
  CONTINUOUS;                             !- Numeric Type

OS:ScheduleTypeLimits,
  {6a413d77-a79c-42d7-a9f2-80caaa56aadc}, !- Handle
  {b8807b92-f329-40a7-8fb4-9013ccfb090f}; !- Name

OS:Schedule:Compact,
  {5f071dab-3371-4dcb-a952-89eafe7d60dd}, !- Handle
  ALWAYS_ON,                              !- Name
  {0d5f1958-42a0-4db4-9fe7-f516fcfc6a45}, !- Schedule Type Limits Name
  Through: 12/31,                         !- Field 1
  For: AllDays,                           !- Field 2
  Until: 24:00,                           !- Field 3
  1;                                      !- Field 4

OS:HeatBalanceAlgorithm,
  {88a5f617-3332-4d4f-b232-21d86f4827af}, !- Handle
  ConductionTransferFunction,             !- Algorithm
  200;                                    !- Surface Temperature Upper Limit {C}

OS:Sizing:Parameters,
  {9c35062e-70fd-4091-912b-92a9ff7edcf8}, !- Handle
  1.33,                                   !- Heating Sizing Factor
  1.33,                                   !- Cooling Sizing Factor
  6;                                      !- Timesteps in Averaging Window

OS:Surface,
  {56562cac-7bd2-4cde-9418-c6ea2e2ae942}, !- Handle
  Storage_Flr_1_Wall_West,                !- Name
  Wall,                                   !- Surface Type
  {52401926-80e1-46e0-b2c4-04582693f8d8}, !- Construction Name
  {eb2314ae-fae1-4fa6-b8a3-f35eef5b9849}, !- Space Name
  Surface,                                !- Outside Boundary Condition
  {7841ee0c-950a-4185-9bb4-20beeb1b98b3}, !- Outside Boundary Condition Object
  NoSun,                                  !- Sun Exposure
  NoWind,                                 !- Wind Exposure
  ,                                       !- View Factor to Ground
  ,                                       !- Number of Vertices
  69.799, 22.86, 3.9624,                  !- X,Y,Z Vertex 1 {m}
  69.799, 22.86, 0,                       !- X,Y,Z Vertex 2 {m}
  69.799, 12.497, 0,                      !- X,Y,Z Vertex 3 {m}
  69.799, 12.497, 3.9624;                 !- X,Y,Z Vertex 4 {m}

OS:Construction,
  {52401926-80e1-46e0-b2c4-04582693f8d8}, !- Handle
  int-walls,                              !- Name
  {8e85110b-d133-41f9-8847-5a54edd2167f}, !- Surface Rendering Name
  {0b891a14-425c-4141-96a3-8b684196c6ff}, !- Layer 1
  {0b891a14-425c-4141-96a3-8b684196c6ff}; !- Layer 2

OS:Material,
  {0b891a14-425c-4141-96a3-8b684196c6ff}, !- Handle
  1/2IN Gypsum,                           !- Name
  Smooth,                                 !- Roughness
  0.0127,                                 !- Thickness {m}
  0.16,                                   !- Conductivity {W/m-K}
  784.9,                                  !- Density {kg/m3}
  830,                                    !- Specific Heat {J/kg-K}
  0.9,                                    !- Thermal Absorptance
  0.92,                                   !- Solar Absorptance
  0.92;                                   !- Visible Absorptance

OS:ThermalZone,
  {eeab61af-8bab-4a8c-9b61-6ef74b04aff5}, !- Handle
  Storage_Flr_1 Thermal Zone,             !- Name
  1,                                      !- Multiplier
  ,                                       !- Ceiling Height {m}
  ,                                       !- Volume {m3}
  ,                                       !- Floor Area {m2}
  ,                                       !- Zone Inside Convection Algorithm
  ,                                       !- Zone Outside Convection Algorithm
  ,                                       !- Zone Conditioning Equipment List Name
  {95d3dbd1-f986-4c45-9aca-c5bb8cd4518f}, !- Zone Air Inlet Port List
  {9fea6fbc-282c-4463-a0a8-12d5986e38f0}, !- Zone Air Exhaust Port List
  {0d4d04f2-94a6-4fec-b396-86624eefe67a}, !- Zone Air Node Name
  {7d866a46-2349-4ccc-8870-0564623bc574}, !- Zone Return Air Port List
  ,                                       !- Primary Daylighting Control Name
  ,                                       !- Fraction of Zone Controlled by Primary Daylighting Control
  ,                                       !- Secondary Daylighting Control Name
  ,                                       !- Fraction of Zone Controlled by Secondary Daylighting Control
  ,                                       !- Illuminance Map Name
  {24b6a6e0-0dc5-4ce9-8249-2bb144478945}, !- Group Rendering Name
  {933b1912-90dc-4dc8-91ea-86600b109337}, !- Thermostat Name
  No;                                     !- Use Ideal Air Loads

OS:Node,
  {669d40e9-ceaf-45af-97a7-141983f1f2da}, !- Handle
  {f0e85f6c-702e-4947-abeb-4d31199f4ad7}, !- Name
  {0d4d04f2-94a6-4fec-b396-86624eefe67a}, !- Inlet Port
  ;                                       !- Outlet Port

OS:Connection,
  {0d4d04f2-94a6-4fec-b396-86624eefe67a}, !- Handle
  {65b75212-caf8-4611-8fe0-0a7a43776d62}, !- Name
  {eeab61af-8bab-4a8c-9b61-6ef74b04aff5}, !- Source Object
  11,                                     !- Outlet Port
  {669d40e9-ceaf-45af-97a7-141983f1f2da}, !- Target Object
  2;                                      !- Inlet Port

OS:PortList,
  {95d3dbd1-f986-4c45-9aca-c5bb8cd4518f}, !- Handle
  {6123b2be-0bf2-4ada-98cd-1231125053e0}, !- Name
  {eeab61af-8bab-4a8c-9b61-6ef74b04aff5}; !- HVAC Component

OS:PortList,
  {9fea6fbc-282c-4463-a0a8-12d5986e38f0}, !- Handle
  {877a842c-e561-4737-bee1-f4a7519d3064}, !- Name
  {eeab61af-8bab-4a8c-9b61-6ef74b04aff5}; !- HVAC Component

OS:PortList,
  {7d866a46-2349-4ccc-8870-0564623bc574}, !- Handle
  {0bd06ac5-9a44-4886-bb43-45148b9d872f}, !- Name
  {eeab61af-8bab-4a8c-9b61-6ef74b04aff5}; !- HVAC Component

OS:Sizing:Zone,
  {bb791e28-4377-42cb-ad5f-19186070b9a9}, !- Handle
  {eeab61af-8bab-4a8c-9b61-6ef74b04aff5}, !- Zone or ZoneList Name
  SupplyAirTemperature,                   !- Zone Cooling Design Supply Air Temperature Input Method
  14,                                     !- Zone Cooling Design Supply Air Temperature {C}
  11.11,                                  !- Zone Cooling Design Supply Air Temperature Difference {deltaC}
  SupplyAirTemperature,                   !- Zone Heating Design Supply Air Temperature Input Method
  40,                                     !- Zone Heating Design Supply Air Temperature {C}
  11.11,                                  !- Zone Heating Design Supply Air Temperature Difference {deltaC}
  0.0085,                                 !- Zone Cooling Design Supply Air Humidity Ratio {kg-H2O/kg-air}
  0.008,                                  !- Zone Heating Design Supply Air Humidity Ratio {kg-H2O/kg-air}
  ,                                       !- Zone Heating Sizing Factor
  ,                                       !- Zone Cooling Sizing Factor
  DesignDay,                              !- Cooling Design Air Flow Method
  ,                                       !- Cooling Design Air Flow Rate {m3/s}
  ,                                       !- Cooling Minimum Air Flow per Zone Floor Area {m3/s-m2}
  ,                                       !- Cooling Minimum Air Flow {m3/s}
  ,                                       !- Cooling Minimum Air Flow Fraction
  DesignDay,                              !- Heating Design Air Flow Method
  ,                                       !- Heating Design Air Flow Rate {m3/s}
  ,                                       !- Heating Maximum Air Flow per Zone Floor Area {m3/s-m2}
  ,                                       !- Heating Maximum Air Flow {m3/s}
  ,                                       !- Heating Maximum Air Flow Fraction
  No,                                     !- Account for Dedicated Outdoor Air System
  NeutralSupplyAir,                       !- Dedicated Outdoor Air System Control Strategy
  autosize,                               !- Dedicated Outdoor Air Low Setpoint Temperature for Design {C}
  autosize;                               !- Dedicated Outdoor Air High Setpoint Temperature for Design {C}

OS:ZoneHVAC:EquipmentList,
  {d7092cca-4012-42cc-a1dc-98a2bafea8c4}, !- Handle
  {d22b52f4-ffbc-403f-8b32-1153c0616c63}, !- Name
  {eeab61af-8bab-4a8c-9b61-6ef74b04aff5}; !- Thermal Zone

OS:Space,
  {eb2314ae-fae1-4fa6-b8a3-f35eef5b9849}, !- Handle
  Storage_Flr_1,                          !- Name
  ,                                       !- Space Type Name
  ,                                       !- Default Construction Set Name
  ,                                       !- Default Schedule Set Name
  0,                                      !- Direction of Relative North {deg}
  0,                                      !- X Origin {m}
  0,                                      !- Y Origin {m}
  0,                                      !- Z Origin {m}
  ,                                       !- Building Story Name
  {eeab61af-8bab-4a8c-9b61-6ef74b04aff5}, !- Thermal Zone Name
  Yes,                                    !- Part of Total Floor Area
  {07a4e742-4ddc-4d2c-bd48-3904a451daea}; !- Design Specification Outdoor Air Object Name

OS:ThermostatSetpoint:DualSetpoint,
  {933b1912-90dc-4dc8-91ea-86600b109337}, !- Handle
  Storage_Flr_1 DualSPSched,              !- Name
  {148136fa-17cf-4b02-9225-5b260203fa0f}, !- Heating Setpoint Temperature Schedule Name
  {bbbca923-850c-4ef5-9a8a-f7f85da374ac}; !- Cooling Setpoint Temperature Schedule Name
