
OS:Version,
  {998093bf-9fa4-4264-ab96-22533950b5fe}, !- Handle
  3.0.0;                                  !- Version Identifier

OS:Site,
  {887314a2-cf63-4f5e-8498-95d008302dc0}, !- Handle
  USA IL-CHICAGO-OHARE,                   !- Name
  41.77,                                  !- Latitude {deg}
  -87.75,                                 !- Longitude {deg}
  -6,                                     !- Time Zone {hr}
  190,                                    !- Elevation {m}
  City;                                   !- Terrain

OS:SimulationControl,
  {d37ae58c-1bbb-4e3f-9510-80b0a152fd3d}, !- Handle
  Yes,                                    !- Do Zone Sizing Calculation
  Yes,                                    !- Do System Sizing Calculation
  Yes,                                    !- Do Plant Sizing Calculation
  Yes,                                    !- Run Simulation for Sizing Periods
  No,                                     !- Run Simulation for Weather File Run Periods
  0.04,                                   !- Loads Convergence Tolerance Value {W}
  0.2,                                    !- Temperature Convergence Tolerance Value {deltaC}
  FullInteriorAndExterior,                !- Solar Distribution
  25,                                     !- Maximum Number of Warmup Days
  6;                                      !- Minimum Number of Warmup Days

OS:Building,
  {d8a85ac5-6976-43d3-8919-685875016d66}, !- Handle
  Ref Bldg Small Hotel New2004_v1.3_5.0,  !- Name
  ,                                       !- Building Sector Type
  0,                                      !- North Axis {deg}
  ,                                       !- Nominal Floor to Floor Height {m}
  ,                                       !- Space Type Name
  ,                                       !- Default Construction Set Name
  ;                                       !- Default Schedule Set Name

OS:RunPeriod,
  {80dcd460-615d-4d2e-9c63-b27c95e5459c}, !- Handle
  Run Period 1,                           !- Name
  1,                                      !- Begin Month
  1,                                      !- Begin Day of Month
  12,                                     !- End Month
  31,                                     !- End Day of Month
  No,                                     !- Use Weather File Holidays and Special Days
  No,                                     !- Use Weather File Daylight Saving Period
  No,                                     !- Apply Weekend Holiday Rule
  Yes,                                    !- Use Weather File Rain Indicators
  Yes,                                    !- Use Weather File Snow Indicators
  ;                                       !- Number of Times Runperiod to be Repeated

OS:YearDescription,
  {efe00911-efc2-4479-bba9-875621bca8c3}, !- Handle
  ,                                       !- Calendar Year
  Sunday;                                 !- Day of Week for Start Day

OS:RunPeriodControl:DaylightSavingTime,
  {8c1b2b57-253f-4979-baa6-232908f0d463}, !- Handle
  2nd Sunday in March,                    !- Start Date
  1st Sunday in November;                 !- End Date

OS:Sizing:Parameters,
  {32024e46-beff-4ac6-a9e6-fa04140d5a2d}, !- Handle
  1.2,                                    !- Heating Sizing Factor
  1.2,                                    !- Cooling Sizing Factor
  4;                                      !- Timesteps in Averaging Window

OS:InternalMass:Definition,
  {f031f9b2-acde-4057-8411-3a4c4e65247e}, !- Handle
  GuestRoom206_208 Internal Mass Definition, !- Name
  {b3f229ac-4192-4859-8509-5b5f645cc599}, !- Construction Name
  SurfaceArea,                            !- Design Level Calculation Method
  210.7195,                               !- Surface Area {m2}
  ,                                       !- Surface Area per Space Floor Area {dimensionless}
  ;                                       !- Surface Area per Person {m2/person}

OS:Construction,
  {b3f229ac-4192-4859-8509-5b5f645cc599}, !- Handle
  InteriorFurnishings,                    !- Name
  {1ad32153-74c8-4447-afcb-2b012c4c4016}, !- Surface Rendering Name
  {d0ce5d32-17fa-4657-9452-9c71ed88843a}; !- Layer 1

OS:Material,
  {d0ce5d32-17fa-4657-9452-9c71ed88843a}, !- Handle
  Std Wood 6inch,                         !- Name
  MediumSmooth,                           !- Roughness
  0.15,                                   !- Thickness {m}
  0.12,                                   !- Conductivity {W/m-K}
  540,                                    !- Density {kg/m3}
  1210,                                   !- Specific Heat {J/kg-K}
  0.9,                                    !- Thermal Absorptance
  0.7,                                    !- Solar Absorptance
  0.7;                                    !- Visible Absorptance

OS:InternalMass,
  {18105fd1-304a-4c06-a150-818bb2a77e49}, !- Handle
  GuestRoom206_208 Internal Mass,         !- Name
  {f031f9b2-acde-4057-8411-3a4c4e65247e}, !- Internal Mass Definition Name
  {52241ae8-f8f0-427c-9bed-bc38012b7800}, !- Space or SpaceType Name
  1;                                      !- Multiplier

OS:ThermalZone,
  {66c86d33-b640-485c-a745-59c2b6672e6d}, !- Handle
  GuestRoom206_208 Thermal Zone,          !- Name
  1,                                      !- Multiplier
  ,                                       !- Ceiling Height {m}
  ,                                       !- Volume {m3}
  ,                                       !- Floor Area {m2}
  ,                                       !- Zone Inside Convection Algorithm
  ,                                       !- Zone Outside Convection Algorithm
  ,                                       !- Zone Conditioning Equipment List Name
  {96b0a46a-c867-495b-9a3e-288b9e8c3da1}, !- Zone Air Inlet Port List
  {e9a4caaa-84e2-41fd-8578-cb7c71796e9e}, !- Zone Air Exhaust Port List
  {9da11bde-b51b-4987-bf2b-5d2a9817aff8}, !- Zone Air Node Name
  {ad5049bb-eee9-43c5-86a2-f7e256d98c8f}, !- Zone Return Air Port List
  ,                                       !- Primary Daylighting Control Name
  ,                                       !- Fraction of Zone Controlled by Primary Daylighting Control
  ,                                       !- Secondary Daylighting Control Name
  ,                                       !- Fraction of Zone Controlled by Secondary Daylighting Control
  ,                                       !- Illuminance Map Name
  {1d789128-4d1f-4fbe-8c35-1d51b5772121}, !- Group Rendering Name
  {7830a272-6a95-493a-acf2-1bc35a712130}, !- Thermostat Name
  No;                                     !- Use Ideal Air Loads

OS:Node,
  {a693621d-9715-441e-b484-114aeb896e4b}, !- Handle
  {b18ab1ab-acd0-4ad5-b6da-4b74e9287c3a}, !- Name
  {9da11bde-b51b-4987-bf2b-5d2a9817aff8}, !- Inlet Port
  ;                                       !- Outlet Port

OS:Connection,
  {9da11bde-b51b-4987-bf2b-5d2a9817aff8}, !- Handle
  {1ce9d250-05c8-4e01-a96c-037942f96928}, !- Name
  {66c86d33-b640-485c-a745-59c2b6672e6d}, !- Source Object
  11,                                     !- Outlet Port
  {a693621d-9715-441e-b484-114aeb896e4b}, !- Target Object
  2;                                      !- Inlet Port

OS:PortList,
  {96b0a46a-c867-495b-9a3e-288b9e8c3da1}, !- Handle
  {e867e9a4-d75a-41ee-9caa-5908411d6ac0}, !- Name
  {66c86d33-b640-485c-a745-59c2b6672e6d}; !- HVAC Component

OS:PortList,
  {e9a4caaa-84e2-41fd-8578-cb7c71796e9e}, !- Handle
  {b01f18fc-a12d-4fa7-b1ac-1b6d35359e01}, !- Name
  {66c86d33-b640-485c-a745-59c2b6672e6d}; !- HVAC Component

OS:PortList,
  {ad5049bb-eee9-43c5-86a2-f7e256d98c8f}, !- Handle
  {3ed7a2af-a34b-4728-bd25-6e6698246c8e}, !- Name
  {66c86d33-b640-485c-a745-59c2b6672e6d}; !- HVAC Component

OS:Sizing:Zone,
  {f3b188e3-cba8-4792-9989-131aabd49606}, !- Handle
  {66c86d33-b640-485c-a745-59c2b6672e6d}, !- Zone or ZoneList Name
  SupplyAirTemperature,                   !- Zone Cooling Design Supply Air Temperature Input Method
  14,                                     !- Zone Cooling Design Supply Air Temperature {C}
  11.11,                                  !- Zone Cooling Design Supply Air Temperature Difference {deltaC}
  SupplyAirTemperature,                   !- Zone Heating Design Supply Air Temperature Input Method
  40,                                     !- Zone Heating Design Supply Air Temperature {C}
  11.11,                                  !- Zone Heating Design Supply Air Temperature Difference {deltaC}
  0.0085,                                 !- Zone Cooling Design Supply Air Humidity Ratio {kg-H2O/kg-air}
  0.008,                                  !- Zone Heating Design Supply Air Humidity Ratio {kg-H2O/kg-air}
  ,                                       !- Zone Heating Sizing Factor
  ,                                       !- Zone Cooling Sizing Factor
  DesignDay,                              !- Cooling Design Air Flow Method
  ,                                       !- Cooling Design Air Flow Rate {m3/s}
  ,                                       !- Cooling Minimum Air Flow per Zone Floor Area {m3/s-m2}
  ,                                       !- Cooling Minimum Air Flow {m3/s}
  ,                                       !- Cooling Minimum Air Flow Fraction
  DesignDay,                              !- Heating Design Air Flow Method
  ,                                       !- Heating Design Air Flow Rate {m3/s}
  ,                                       !- Heating Maximum Air Flow per Zone Floor Area {m3/s-m2}
  ,                                       !- Heating Maximum Air Flow {m3/s}
  ,                                       !- Heating Maximum Air Flow Fraction
  No,                                     !- Account for Dedicated Outdoor Air System
  NeutralSupplyAir,                       !- Dedicated Outdoor Air System Control Strategy
  autosize,                               !- Dedicated Outdoor Air Low Setpoint Temperature for Design {C}
  autosize;                               !- Dedicated Outdoor Air High Setpoint Temperature for Design {C}

OS:ZoneHVAC:EquipmentList,
  {085e5c5b-1624-475c-b980-fcbad9271e35}, !- Handle
  {85d7f186-3b8b-473d-9bcd-b4349b381b43}, !- Name
  {66c86d33-b640-485c-a745-59c2b6672e6d}; !- Thermal Zone

OS:Space,
  {52241ae8-f8f0-427c-9bed-bc38012b7800}, !- Handle
  GuestRoom206_208,                       !- Name
  ,                                       !- Space Type Name
  ,                                       !- Default Construction Set Name
  ,                                       !- Default Schedule Set Name
  0,                                      !- Direction of Relative North {deg}
  0,                                      !- X Origin {m}
  0,                                      !- Y Origin {m}
  0,                                      !- Z Origin {m}
  ,                                       !- Building Story Name
  {66c86d33-b640-485c-a745-59c2b6672e6d}, !- Thermal Zone Name
  Yes,                                    !- Part of Total Floor Area
  {ba4fcfa9-f0f5-4f59-96f0-51aee27703f8}; !- Design Specification Outdoor Air Object Name

OS:ThermostatSetpoint:DualSetpoint,
  {7830a272-6a95-493a-acf2-1bc35a712130}, !- Handle
  GuestRoom206_208 DualSPSched,           !- Name
  {6f936bf6-c59c-429e-9489-fbdb050cd5d8}, !- Heating Setpoint Temperature Schedule Name
  {1fe59dfb-dce7-4de2-a13f-883f0e9b3f85}; !- Cooling Setpoint Temperature Schedule Name

OS:Schedule:Compact,
  {6f936bf6-c59c-429e-9489-fbdb050cd5d8}, !- Handle
  HTGSETP_SCH,                            !- Name
  {a3016129-a9ec-4d10-9c28-78ff579358bc}, !- Schedule Type Limits Name
  Through: 12/31,                         !- Field 1
  For: AllDays,                           !- Field 2
  Until: 24:00,                           !- Field 3
  21;                                     !- Field 4

OS:ScheduleTypeLimits,
  {a3016129-a9ec-4d10-9c28-78ff579358bc}, !- Handle
  Temperature,                            !- Name
  -60,                                    !- Lower Limit Value
  200,                                    !- Upper Limit Value
  CONTINUOUS,                             !- Numeric Type
  Temperature;                            !- Unit Type

OS:Schedule:Compact,
  {1fe59dfb-dce7-4de2-a13f-883f0e9b3f85}, !- Handle
  CLGSETP_SCH,                            !- Name
  {a3016129-a9ec-4d10-9c28-78ff579358bc}, !- Schedule Type Limits Name
  Through: 12/31,                         !- Field 1
  For: AllDays,                           !- Field 2
  Until: 24:00,                           !- Field 3
  24;                                     !- Field 4

OS:ScheduleTypeLimits,
  {c1efa304-5f92-49f6-8d55-88b84865197c}, !- Handle
  {5af0785b-10fa-4847-914d-519a978b1700}; !- Name

OS:ScheduleTypeLimits,
  {cd3a91fc-e2dd-4611-b38f-247b43fd86bb}, !- Handle
  Fraction,                               !- Name
  0,                                      !- Lower Limit Value
  1,                                      !- Upper Limit Value
  CONTINUOUS;                             !- Numeric Type

OS:ScheduleTypeLimits,
  {8d97b66f-1f5c-415b-b055-38e930192772}, !- Handle
  On/Off,                                 !- Name
  0,                                      !- Lower Limit Value
  1,                                      !- Upper Limit Value
  DISCRETE,                               !- Numeric Type
  Availability;                           !- Unit Type

OS:ScheduleTypeLimits,
  {3cafab61-c318-46d8-992d-bcb474e6e33d}, !- Handle
  Control Type,                           !- Name
  0,                                      !- Lower Limit Value
  4,                                      !- Upper Limit Value
  DISCRETE,                               !- Numeric Type
  ControlMode;                            !- Unit Type

OS:ScheduleTypeLimits,
  {e9762faf-3bfd-441b-ab57-22b02c744c8b}, !- Handle
  Humidity,                               !- Name
  10,                                     !- Lower Limit Value
  90,                                     !- Upper Limit Value
  CONTINUOUS;                             !- Numeric Type

OS:ScheduleTypeLimits,
  {4660459b-d46b-4a64-9e6c-14e4756a6c11}, !- Handle
  {ead51328-1dea-4768-8341-75dcb4e69254}; !- Name

OS:Schedule:Compact,
  {9331339d-3454-4914-bb6b-cd4c99870cb0}, !- Handle
  ALWAYS_ON,                              !- Name
  {8d97b66f-1f5c-415b-b055-38e930192772}, !- Schedule Type Limits Name
  Through: 12/31,                         !- Field 1
  For: AllDays,                           !- Field 2
  Until: 24:00,                           !- Field 3
  1;                                      !- Field 4

OS:HeatBalanceAlgorithm,
  {6265ef65-8506-4d43-81dc-14b54bbd3c29}, !- Handle
  ConductionTransferFunction,             !- Algorithm
  200;                                    !- Surface Temperature Upper Limit {C}

OS:ConvergenceLimits,
  {bf4ad3fa-b60f-422d-9fff-bba15571f01d}, !- Handle
  2,                                      !- Minimum System Timestep {minutes}
  25;                                     !- Maximum HVAC Iterations

OS:ShadowCalculation,
  {addce03b-717a-4d4d-affb-88e7265d1261}, !- Handle
  PolygonClipping,                        !- Shading Calculation Method
  Periodic,                               !- Shading Calculation Update Frequency Method
  7,                                      !- Shading Calculation Update Frequency
  15000,                                  !- Maximum Figures in Shadow Overlap Calculations
  ,                                       !- Polygon Clipping Algorithm
  512,                                    !- Pixel Counting Resolution
  ,                                       !- Sky Diffuse Modeling Algorithm
  No,                                     !- Output External Shading Calculation Results
  No,                                     !- Disable Self-Shading Within Shading Zone Groups
  No;                                     !- Disable Self-Shading From Shading Zone Groups to Other Zones

OS:Timestep,
  {bede44dd-23e3-46e9-b131-e233efba9047}, !- Handle
  4;                                      !- Number of Timesteps per Hour

OS:Surface,
  {6c64579f-2bad-4f64-8ded-9d6962dc58ab}, !- Handle
  P_GuestRoom213_10145_0_10089,           !- Name
  Wall,                                   !- Surface Type
  {d1ba36d6-ef8a-4b35-bef4-8f2f27b13f2a}, !- Construction Name
  {10201910-601f-4db0-9414-721cf745c1fb}, !- Space Name
  Surface,                                !- Outside Boundary Condition
  {ac0e8b47-f230-47b8-920d-d00bd3bcc3b9}, !- Outside Boundary Condition Object
  NoSun,                                  !- Sun Exposure
  NoWind,                                 !- Wind Exposure
  ,                                       !- View Factor to Ground
  ,                                       !- Number of Vertices
  48.5119, 8.279, 6.096,                  !- X,Y,Z Vertex 1 {m}
  48.5119, 8.279, 3.3528,                 !- X,Y,Z Vertex 2 {m}
  48.5119, 0.0488, 3.3528,                !- X,Y,Z Vertex 3 {m}
  48.5119, 0.0488, 6.096;                 !- X,Y,Z Vertex 4 {m}

OS:Construction,
  {d1ba36d6-ef8a-4b35-bef4-8f2f27b13f2a}, !- Handle
  int-walls,                              !- Name
  {d0d0a1cc-e35d-4009-bc66-32cd56fb10d5}, !- Surface Rendering Name
  {7bd66e09-e308-420e-ab9a-9665cc74467d}, !- Layer 1
  {7bd66e09-e308-420e-ab9a-9665cc74467d}; !- Layer 2

OS:Material,
  {7bd66e09-e308-420e-ab9a-9665cc74467d}, !- Handle
  1/2IN Gypsum,                           !- Name
  Smooth,                                 !- Roughness
  0.0127,                                 !- Thickness {m}
  0.16,                                   !- Conductivity {W/m-K}
  784.9,                                  !- Density {kg/m3}
  830,                                    !- Specific Heat {J/kg-K}
  0.9,                                    !- Thermal Absorptance
  0.92,                                   !- Solar Absorptance
  0.92;                                   !- Visible Absorptance

OS:ThermalZone,
  {4abca92a-f074-474b-bc79-81fd3606f554}, !- Handle
  GuestRoom213 Thermal Zone,              !- Name
  1,                                      !- Multiplier
  ,                                       !- Ceiling Height {m}
  ,                                       !- Volume {m3}
  ,                                       !- Floor Area {m2}
  ,                                       !- Zone Inside Convection Algorithm
  ,                                       !- Zone Outside Convection Algorithm
  ,                                       !- Zone Conditioning Equipment List Name
  {5b805b33-c47d-41d4-9210-a053c62c2011}, !- Zone Air Inlet Port List
  {40fb5eee-a3f6-42e8-b952-4138850657da}, !- Zone Air Exhaust Port List
  {b0f5c966-af58-4c14-816e-0c9863f5851a}, !- Zone Air Node Name
  {99826a4c-2d9a-46a3-a64f-ecc63183bd37}, !- Zone Return Air Port List
  ,                                       !- Primary Daylighting Control Name
  ,                                       !- Fraction of Zone Controlled by Primary Daylighting Control
  ,                                       !- Secondary Daylighting Control Name
  ,                                       !- Fraction of Zone Controlled by Secondary Daylighting Control
  ,                                       !- Illuminance Map Name
  {b91daf40-ba11-4479-b04e-fb3d464a43fa}, !- Group Rendering Name
  {09a45186-5f69-459a-a2b5-898869706092}, !- Thermostat Name
  No;                                     !- Use Ideal Air Loads

OS:Node,
  {756a9a1c-5e47-4bd7-afb6-da0826726465}, !- Handle
  {e0cbf28a-b397-4890-b27e-db3e03bdb628}, !- Name
  {b0f5c966-af58-4c14-816e-0c9863f5851a}, !- Inlet Port
  ;                                       !- Outlet Port

OS:Connection,
  {b0f5c966-af58-4c14-816e-0c9863f5851a}, !- Handle
  {ff35de4f-569a-4796-a4ef-65ec3df212af}, !- Name
  {4abca92a-f074-474b-bc79-81fd3606f554}, !- Source Object
  11,                                     !- Outlet Port
  {756a9a1c-5e47-4bd7-afb6-da0826726465}, !- Target Object
  2;                                      !- Inlet Port

OS:PortList,
  {5b805b33-c47d-41d4-9210-a053c62c2011}, !- Handle
  {1f4dfc0c-fbd6-4c3a-8d7f-afd6d188969c}, !- Name
  {4abca92a-f074-474b-bc79-81fd3606f554}; !- HVAC Component

OS:PortList,
  {40fb5eee-a3f6-42e8-b952-4138850657da}, !- Handle
  {036b56eb-c041-449f-85e2-cb04f56ebf18}, !- Name
  {4abca92a-f074-474b-bc79-81fd3606f554}; !- HVAC Component

OS:PortList,
  {99826a4c-2d9a-46a3-a64f-ecc63183bd37}, !- Handle
  {5587e7e1-9410-44d0-85ac-40951392d9f9}, !- Name
  {4abca92a-f074-474b-bc79-81fd3606f554}; !- HVAC Component

OS:Sizing:Zone,
  {bc99a3ab-e946-4e92-bea7-65ff081d82b7}, !- Handle
  {4abca92a-f074-474b-bc79-81fd3606f554}, !- Zone or ZoneList Name
  SupplyAirTemperature,                   !- Zone Cooling Design Supply Air Temperature Input Method
  14,                                     !- Zone Cooling Design Supply Air Temperature {C}
  11.11,                                  !- Zone Cooling Design Supply Air Temperature Difference {deltaC}
  SupplyAirTemperature,                   !- Zone Heating Design Supply Air Temperature Input Method
  40,                                     !- Zone Heating Design Supply Air Temperature {C}
  11.11,                                  !- Zone Heating Design Supply Air Temperature Difference {deltaC}
  0.0085,                                 !- Zone Cooling Design Supply Air Humidity Ratio {kg-H2O/kg-air}
  0.008,                                  !- Zone Heating Design Supply Air Humidity Ratio {kg-H2O/kg-air}
  ,                                       !- Zone Heating Sizing Factor
  ,                                       !- Zone Cooling Sizing Factor
  DesignDay,                              !- Cooling Design Air Flow Method
  ,                                       !- Cooling Design Air Flow Rate {m3/s}
  ,                                       !- Cooling Minimum Air Flow per Zone Floor Area {m3/s-m2}
  ,                                       !- Cooling Minimum Air Flow {m3/s}
  ,                                       !- Cooling Minimum Air Flow Fraction
  DesignDay,                              !- Heating Design Air Flow Method
  ,                                       !- Heating Design Air Flow Rate {m3/s}
  ,                                       !- Heating Maximum Air Flow per Zone Floor Area {m3/s-m2}
  ,                                       !- Heating Maximum Air Flow {m3/s}
  ,                                       !- Heating Maximum Air Flow Fraction
  No,                                     !- Account for Dedicated Outdoor Air System
  NeutralSupplyAir,                       !- Dedicated Outdoor Air System Control Strategy
  autosize,                               !- Dedicated Outdoor Air Low Setpoint Temperature for Design {C}
  autosize;                               !- Dedicated Outdoor Air High Setpoint Temperature for Design {C}

OS:ZoneHVAC:EquipmentList,
  {2eeda4b4-b162-4536-9d62-bc89bb9c360a}, !- Handle
  {9a93820b-65b7-40f7-afa4-6ca5b90ccd54}, !- Name
  {4abca92a-f074-474b-bc79-81fd3606f554}; !- Thermal Zone

OS:Space,
  {10201910-601f-4db0-9414-721cf745c1fb}, !- Handle
  GuestRoom213,                           !- Name
  ,                                       !- Space Type Name
  ,                                       !- Default Construction Set Name
  ,                                       !- Default Schedule Set Name
  0,                                      !- Direction of Relative North {deg}
  0,                                      !- X Origin {m}
  0,                                      !- Y Origin {m}
  0,                                      !- Z Origin {m}
  ,                                       !- Building Story Name
  {4abca92a-f074-474b-bc79-81fd3606f554}, !- Thermal Zone Name
  Yes,                                    !- Part of Total Floor Area
  {d164f352-04cc-400a-a2cd-ff111a1c7a52}; !- Design Specification Outdoor Air Object Name

OS:ThermostatSetpoint:DualSetpoint,
  {09a45186-5f69-459a-a2b5-898869706092}, !- Handle
  GuestRoom213 DualSPSched,               !- Name
  {6f936bf6-c59c-429e-9489-fbdb050cd5d8}, !- Heating Setpoint Temperature Schedule Name
  {1fe59dfb-dce7-4de2-a13f-883f0e9b3f85}; !- Cooling Setpoint Temperature Schedule Name

OS:SizingPeriod:DesignDay,
  {ee02d5af-9825-4dc9-babe-3c5ae09a763a}, !- Handle
  CHICAGO Ann Htg 99.6% Condns DB,        !- Name
  -20.6,                                  !- Maximum Dry-Bulb Temperature {C}
  0,                                      !- Daily Dry-Bulb Temperature Range {deltaC}
  -20.6,                                  !- Humidity Indicating Conditions at Maximum Dry-Bulb
  99063,                                  !- Barometric Pressure {Pa}
  4.9,                                    !- Wind Speed {m/s}
  270,                                    !- Wind Direction {deg}
  0,                                      !- Sky Clearness
  0,                                      !- Rain Indicator
  0,                                      !- Snow Indicator
  21,                                     !- Day of Month
  1,                                      !- Month
  WinterDesignDay,                        !- Day Type
  0,                                      !- Daylight Saving Time Indicator
  Wetbulb,                                !- Humidity Indicating Type
  ,                                       !- Humidity Indicating Day Schedule Name
  ,                                       !- Dry-Bulb Temperature Range Modifier Type
  ,                                       !- Dry-Bulb Temperature Range Modifier Schedule Name
  ASHRAEClearSky;                         !- Solar Model Indicator

OS:SizingPeriod:DesignDay,
  {acd5a611-edc8-475f-acf5-a78f5fd22a1b}, !- Handle
  CHICAGO Ann Clg .4% Condns WB=>MDB,     !- Name
  31.2,                                   !- Maximum Dry-Bulb Temperature {C}
  10.7,                                   !- Daily Dry-Bulb Temperature Range {deltaC}
  25.5,                                   !- Humidity Indicating Conditions at Maximum Dry-Bulb
  99063,                                  !- Barometric Pressure {Pa}
  5.3,                                    !- Wind Speed {m/s}
  230,                                    !- Wind Direction {deg}
  1,                                      !- Sky Clearness
  0,                                      !- Rain Indicator
  0,                                      !- Snow Indicator
  21,                                     !- Day of Month
  7,                                      !- Month
  SummerDesignDay,                        !- Day Type
  0,                                      !- Daylight Saving Time Indicator
  Wetbulb,                                !- Humidity Indicating Type
  ,                                       !- Humidity Indicating Day Schedule Name
  ,                                       !- Dry-Bulb Temperature Range Modifier Type
  ,                                       !- Dry-Bulb Temperature Range Modifier Schedule Name
  ASHRAEClearSky;                         !- Solar Model Indicator

OS:Construction,
  {c1d02411-5bdb-4c80-9b22-6418062e689a}, !- Handle
  Steel Frame Res Ext Wall,               !- Name
  {bb1a0d1d-6759-4d65-b62f-13b514041bdf}, !- Surface Rendering Name
  {4cc31458-51a1-417a-ad95-264892cbe03c}, !- Layer 1
  {0e6f03e7-0b04-41ce-9336-10cae951fb60}, !- Layer 2
  {7bd66e09-e308-420e-ab9a-9665cc74467d}; !- Layer 3

OS:Material,
  {4cc31458-51a1-417a-ad95-264892cbe03c}, !- Handle
  Wood Siding,                            !- Name
  MediumSmooth,                           !- Roughness
  0.01,                                   !- Thickness {m}
  0.11,                                   !- Conductivity {W/m-K}
  544.62,                                 !- Density {kg/m3}
  1210,                                   !- Specific Heat {J/kg-K}
  0.9,                                    !- Thermal Absorptance
  0.78,                                   !- Solar Absorptance
  0.78;                                   !- Visible Absorptance

OS:Material,
  {0e6f03e7-0b04-41ce-9336-10cae951fb60}, !- Handle
  Steel Frame Res Wall Insulation,        !- Name
  MediumRough,                            !- Roughness
  0.119161363096001,                      !- Thickness {m}
  0.049,                                  !- Conductivity {W/m-K}
  265,                                    !- Density {kg/m3}
  836.8,                                  !- Specific Heat {J/kg-K}
  0.9,                                    !- Thermal Absorptance
  0.7,                                    !- Solar Absorptance
  0.7;                                    !- Visible Absorptance

OS:Construction,
  {6c38cdd5-e7af-400c-a3ab-cc3d0eefa51f}, !- Handle
  IEAD Res Roof,                          !- Name
  {6720aaa9-87cb-4657-8028-c1b329afdfea}, !- Surface Rendering Name
  {aa3544d4-1053-404b-9b9d-e984231f7427}, !- Layer 1
  {5baebe37-78cb-4352-9c7e-85bcc862eb5b}, !- Layer 2
  {19de5a3c-9992-4b2d-9c48-d4d4e38212d0}; !- Layer 3

OS:Material,
  {aa3544d4-1053-404b-9b9d-e984231f7427}, !- Handle
  Roof Membrane,                          !- Name
  VeryRough,                              !- Roughness
  0.0095,                                 !- Thickness {m}
  0.16,                                   !- Conductivity {W/m-K}
  1121.29,                                !- Density {kg/m3}
  1460,                                   !- Specific Heat {J/kg-K}
  0.9,                                    !- Thermal Absorptance
  0.7,                                    !- Solar Absorptance
  0.7;                                    !- Visible Absorptance

OS:Material,
  {5baebe37-78cb-4352-9c7e-85bcc862eb5b}, !- Handle
  IEAD Res Roof Insulation,               !- Name
  MediumRough,                            !- Roughness
  0.127338688569477,                      !- Thickness {m}
  0.049,                                  !- Conductivity {W/m-K}
  265,                                    !- Density {kg/m3}