
OS:Version,
  {9da3a1a1-c708-4ca7-8d5b-52fa4693723b}, !- Handle
  3.0.0;                                  !- Version Identifier

OS:Site,
  {5fcf5953-8c85-4549-83b5-2d9124fe8a11}, !- Handle
  USA IL-CHICAGO-OHARE,                   !- Name
  41.77,                                  !- Latitude {deg}
  -87.75,                                 !- Longitude {deg}
  -6,                                     !- Time Zone {hr}
  190,                                    !- Elevation {m}
  City;                                   !- Terrain

OS:SimulationControl,
  {07a72ec5-c133-45ec-a584-ecd6970ff372}, !- Handle
  Yes,                                    !- Do Zone Sizing Calculation
  Yes,                                    !- Do System Sizing Calculation
  Yes,                                    !- Do Plant Sizing Calculation
  Yes,                                    !- Run Simulation for Sizing Periods
  No,                                     !- Run Simulation for Weather File Run Periods
  0.04,                                   !- Loads Convergence Tolerance Value {W}
  0.2,                                    !- Temperature Convergence Tolerance Value {deltaC}
  FullInteriorAndExterior,                !- Solar Distribution
  25,                                     !- Maximum Number of Warmup Days
  6,                                      !- Minimum Number of Warmup Days
  Yes,                                    !- Do HVAC Sizing Simulation for Sizing Periods
  1;                                      !- Maximum Number of HVAC Sizing Simulation Passes

OS:Building,
  {9c908de4-0bfd-4b58-b93c-44691c97ebe9}, !- Handle
  Ref Bldg Secondary School New2004_v1.3_5.0, !- Name
  ,                                       !- Building Sector Type
  0,                                      !- North Axis {deg}
  ,                                       !- Nominal Floor to Floor Height {m}
  ,                                       !- Space Type Name
  ,                                       !- Default Construction Set Name
  ;                                       !- Default Schedule Set Name

OS:RunPeriod,
  {76d198ab-1110-4a0e-8669-8f4b108b7da8}, !- Handle
  Run Period 1,                           !- Name
  1,                                      !- Begin Month
  1,                                      !- Begin Day of Month
  12,                                     !- End Month
  31,                                     !- End Day of Month
  No,                                     !- Use Weather File Holidays and Special Days
  No,                                     !- Use Weather File Daylight Saving Period
  No,                                     !- Apply Weekend Holiday Rule
  Yes,                                    !- Use Weather File Rain Indicators
  Yes,                                    !- Use Weather File Snow Indicators
  ;                                       !- Number of Times Runperiod to be Repeated

OS:YearDescription,
  {649d9ea0-eca0-4d83-9397-c7d6e87820ce}, !- Handle
  ,                                       !- Calendar Year
  Sunday;                                 !- Day of Week for Start Day

OS:SubSurface,
  {3d6f4704-b67a-4e1b-a1d9-48694f6bc3f6}, !- Handle
  Aux_Gym_ZN_1_FLR_2_skylight_25,         !- Name
  Skylight,                               !- Sub Surface Type
  {a1a0f45c-95fa-470b-b838-efbbe53b1523}, !- Construction Name
  {4fa6bf81-db22-4b6e-99fc-6e4fa5ad567b}, !- Surface Name
  ,                                       !- Outside Boundary Condition Object
  ,                                       !- View Factor to Ground
  ,                                       !- Shading Control Name
  ,                                       !- Frame and Divider Name
  1,                                      !- Multiplier
  ,                                       !- Number of Vertices
  3.61, 36.946, 8,                        !- X,Y,Z Vertex 1 {m}
  3.61, 38.1652, 8,                       !- X,Y,Z Vertex 2 {m}
  2.39, 38.1652, 8,                       !- X,Y,Z Vertex 3 {m}
  2.39, 36.946, 8;                        !- X,Y,Z Vertex 4 {m}

OS:Construction,
  {a1a0f45c-95fa-470b-b838-efbbe53b1523}, !- Handle
  Skylight cons 456,                      !- Name
  {41f87b2e-952f-4839-9b01-d58c57626973}, !- Surface Rendering Name
  {b037c86c-7464-470f-8e29-da5f8530269e}, !- Layer 1
  {c1d1d7f1-0b15-48fe-87af-d65efdd50de4}, !- Layer 2
  {b037c86c-7464-470f-8e29-da5f8530269e}; !- Layer 3

OS:WindowMaterial:Glazing,
  {b037c86c-7464-470f-8e29-da5f8530269e}, !- Handle
  Skylight Plexi Atofina 2602,            !- Name
  SpectralAverage,                        !- Optical Data Type
  ,                                       !- Window Glass Spectral Data Set Name
  0.002997,                               !- Thickness {m}
  0.507,                                  !- Solar Transmittance at Normal Incidence
  0.221,                                  !- Front Side Solar Reflectance at Normal Incidence
  0.222,                                  !- Back Side Solar Reflectance at Normal Incidence
  0.486,                                  !- Visible Transmittance at Normal Incidence
  0.3,                                    !- Front Side Visible Reflectance at Normal Incidence
  0.3,                                    !- Back Side Visible Reflectance at Normal Incidence
  0,                                      !- Infrared Transmittance at Normal Incidence
  0.9,                                    !- Front Side Infrared Hemispherical Emissivity
  0.9,                                    !- Back Side Infrared Hemispherical Emissivity
  0.187,                                  !- Conductivity {W/m-K}
  1,                                      !- Dirt Correction Factor for Solar and Visible Transmittance
  No;                                     !- Solar Diffusing

OS:WindowMaterial:Gas,
  {c1d1d7f1-0b15-48fe-87af-d65efdd50de4}, !- Handle
  Air,                                    !- Name
  Air,                                    !- Gas Type
  0.0127;                                 !- Thickness {m}

OS:Surface,
  {4fa6bf81-db22-4b6e-99fc-6e4fa5ad567b}, !- Handle
  Aux_Gym_ZN_1_FLR_2_Ceiling,             !- Name
  RoofCeiling,                            !- Surface Type
  {63d65cf7-ec95-49bf-8274-29ad27834a3e}, !- Construction Name
  {7b2aa060-efc4-461b-8169-83d3f1d91e13}, !- Space Name
  Outdoors,                               !- Outside Boundary Condition
  ,                                       !- Outside Boundary Condition Object
  SunExposed,                             !- Sun Exposure
  WindExposed,                            !- Wind Exposure
  ,                                       !- View Factor to Ground
  ,                                       !- Number of Vertices
  24, 0, 8,                               !- X,Y,Z Vertex 1 {m}
  24, 52, 8,                              !- X,Y,Z Vertex 2 {m}
  0, 52, 8,                               !- X,Y,Z Vertex 3 {m}
  0, 0, 8;                                !- X,Y,Z Vertex 4 {m}

OS:Construction,
  {63d65cf7-ec95-49bf-8274-29ad27834a3e}, !- Handle
  IEAD Non-res Roof,                      !- Name
  {9dfaf39a-ed80-4926-b9b7-49354758788e}, !- Surface Rendering Name
  {19208c92-d659-4c07-9986-a94153a04c29}, !- Layer 1
  {335ea0d2-a121-43ff-80a8-78ff29d6f124}, !- Layer 2
  {89d9aa86-5f40-4e26-b449-dd2119c1a944}; !- Layer 3

OS:Material,
  {19208c92-d659-4c07-9986-a94153a04c29}, !- Handle
  Roof Membrane,                          !- Name
  VeryRough,                              !- Roughness
  0.0095,                                 !- Thickness {m}
  0.16,                                   !- Conductivity {W/m-K}
  1121.29,                                !- Density {kg/m3}
  1460,                                   !- Specific Heat {J/kg-K}
  0.9,                                    !- Thermal Absorptance
  0.7,                                    !- Solar Absorptance
  0.7;                                    !- Visible Absorptance

OS:Material,
  {335ea0d2-a121-43ff-80a8-78ff29d6f124}, !- Handle
  IEAD NonRes Roof Insulation,            !- Name
  MediumRough,                            !- Roughness
  0.127338688569477,                      !- Thickness {m}
  0.049,                                  !- Conductivity {W/m-K}
  265,                                    !- Density {kg/m3}
  836.8,                                  !- Specific Heat {J/kg-K}
  0.9,                                    !- Thermal Absorptance
  0.7,                                    !- Solar Absorptance
  0.7;                                    !- Visible Absorptance

OS:Material,
  {89d9aa86-5f40-4e26-b449-dd2119c1a944}, !- Handle
  Metal Decking,                          !- Name
  MediumSmooth,                           !- Roughness
  0.0015,                                 !- Thickness {m}
  45.006,                                 !- Conductivity {W/m-K}
  7680,                                   !- Density {kg/m3}
  418.4,                                  !- Specific Heat {J/kg-K}
  0.9,                                    !- Thermal Absorptance
  0.7,                                    !- Solar Absorptance
  0.3;                                    !- Visible Absorptance

OS:ThermalZone,
  {b970f297-2542-4acf-be9c-1048bf894330}, !- Handle
  Aux_Gym_ZN_1_FLR_1 Thermal Zone,        !- Name
  1,                                      !- Multiplier
  ,                                       !- Ceiling Height {m}
  ,                                       !- Volume {m3}
  ,                                       !- Floor Area {m2}
  ,                                       !- Zone Inside Convection Algorithm
  ,                                       !- Zone Outside Convection Algorithm
  ,                                       !- Zone Conditioning Equipment List Name
  {6826da54-3deb-4125-8d01-901def0faa6c}, !- Zone Air Inlet Port List
  {1ecb3a18-66c3-4d4d-91f0-43f9cef86457}, !- Zone Air Exhaust Port List
  {24678609-aecf-48e1-80dc-e87d64674e21}, !- Zone Air Node Name
  {eb47bfb7-ead2-46fc-833e-c45bbd089481}, !- Zone Return Air Port List
  ,                                       !- Primary Daylighting Control Name
  ,                                       !- Fraction of Zone Controlled by Primary Daylighting Control
  ,                                       !- Secondary Daylighting Control Name
  ,                                       !- Fraction of Zone Controlled by Secondary Daylighting Control
  ,                                       !- Illuminance Map Name
  {ec4b12f7-1de9-4074-bed0-5204b43ccf04}, !- Group Rendering Name
  {96a1c0fb-c0a4-4f6b-839c-a074bb41bfcc}, !- Thermostat Name
  No;                                     !- Use Ideal Air Loads

OS:Node,
  {d63db0fd-fefa-4570-ba34-3250ad23a0ec}, !- Handle
  {a8ce5eb4-377b-459b-9434-14a456b3df55}, !- Name
  {24678609-aecf-48e1-80dc-e87d64674e21}, !- Inlet Port
  ;                                       !- Outlet Port

OS:Connection,
  {24678609-aecf-48e1-80dc-e87d64674e21}, !- Handle
  {30f98990-03e6-455d-b3f5-c6ae68cbb577}, !- Name
  {b970f297-2542-4acf-be9c-1048bf894330}, !- Source Object
  11,                                     !- Outlet Port
  {d63db0fd-fefa-4570-ba34-3250ad23a0ec}, !- Target Object
  2;                                      !- Inlet Port

OS:PortList,
  {6826da54-3deb-4125-8d01-901def0faa6c}, !- Handle
  {6f089711-deae-4a61-98a1-9b88e119b721}, !- Name
  {b970f297-2542-4acf-be9c-1048bf894330}; !- HVAC Component

OS:PortList,
  {1ecb3a18-66c3-4d4d-91f0-43f9cef86457}, !- Handle
  {1781e9e2-00eb-4858-b468-f5273f740300}, !- Name
  {b970f297-2542-4acf-be9c-1048bf894330}; !- HVAC Component

OS:PortList,
  {eb47bfb7-ead2-46fc-833e-c45bbd089481}, !- Handle
  {679f2f80-afa5-4433-b539-10f354b85ebd}, !- Name
  {b970f297-2542-4acf-be9c-1048bf894330}; !- HVAC Component

OS:Sizing:Zone,
  {16a9589f-df86-4472-9716-81663415ca16}, !- Handle
  {b970f297-2542-4acf-be9c-1048bf894330}, !- Zone or ZoneList Name
  SupplyAirTemperature,                   !- Zone Cooling Design Supply Air Temperature Input Method
  12.8,                                   !- Zone Cooling Design Supply Air Temperature {C}
  11.11,                                  !- Zone Cooling Design Supply Air Temperature Difference {deltaC}
  SupplyAirTemperature,                   !- Zone Heating Design Supply Air Temperature Input Method
  50,                                     !- Zone Heating Design Supply Air Temperature {C}
  11.11,                                  !- Zone Heating Design Supply Air Temperature Difference {deltaC}
  0.0085,                                 !- Zone Cooling Design Supply Air Humidity Ratio {kg-H2O/kg-air}
  0.008,                                  !- Zone Heating Design Supply Air Humidity Ratio {kg-H2O/kg-air}
  ,                                       !- Zone Heating Sizing Factor
  ,                                       !- Zone Cooling Sizing Factor
  DesignDay,                              !- Cooling Design Air Flow Method
  ,                                       !- Cooling Design Air Flow Rate {m3/s}
  ,                                       !- Cooling Minimum Air Flow per Zone Floor Area {m3/s-m2}
  ,                                       !- Cooling Minimum Air Flow {m3/s}
  ,                                       !- Cooling Minimum Air Flow Fraction
  DesignDay,                              !- Heating Design Air Flow Method
  ,                                       !- Heating Design Air Flow Rate {m3/s}
  ,                                       !- Heating Maximum Air Flow per Zone Floor Area {m3/s-m2}
  ,                                       !- Heating Maximum Air Flow {m3/s}
  ,                                       !- Heating Maximum Air Flow Fraction
  No,                                     !- Account for Dedicated Outdoor Air System
  NeutralSupplyAir,                       !- Dedicated Outdoor Air System Control Strategy
  autosize,                               !- Dedicated Outdoor Air Low Setpoint Temperature for Design {C}
  autosize;                               !- Dedicated Outdoor Air High Setpoint Temperature for Design {C}

OS:ZoneHVAC:EquipmentList,
  {726de8b6-defe-497f-a352-2d4d2a2d7ec6}, !- Handle
  {bcf7ede0-eadd-4303-b07e-48ed2a357f2b}, !- Name
  {b970f297-2542-4acf-be9c-1048bf894330}; !- Thermal Zone

OS:Space,
  {7b2aa060-efc4-461b-8169-83d3f1d91e13}, !- Handle
  Aux_Gym_ZN_1_FLR_1,                     !- Name
  ,                                       !- Space Type Name
  ,                                       !- Default Construction Set Name
  ,                                       !- Default Schedule Set Name
  0,                                      !- Direction of Relative North {deg}
  117,                                    !- X Origin {m}
  14,                                     !- Y Origin {m}
  0,                                      !- Z Origin {m}
  ,                                       !- Building Story Name
  {b970f297-2542-4acf-be9c-1048bf894330}, !- Thermal Zone Name
  Yes,                                    !- Part of Total Floor Area
  {8fff1e59-28d9-4da2-acf1-af738edd0969}; !- Design Specification Outdoor Air Object Name

OS:ThermostatSetpoint:DualSetpoint,
  {96a1c0fb-c0a4-4f6b-839c-a074bb41bfcc}, !- Handle
  Aux_Gym_ZN_1_FLR_1 DualSPSched,         !- Name
  {d258f489-f55b-4e93-8688-699e419c4a73}, !- Heating Setpoint Temperature Schedule Name
  {9aa90a7d-3db6-475a-bb44-d01b0f2f15c6}; !- Cooling Setpoint Temperature Schedule Name

OS:Schedule:Compact,
  {d258f489-f55b-4e93-8688-699e419c4a73}, !- Handle
  HTGSETP_SCH,                            !- Name
  {626f285a-3e19-4c80-ad90-6b36a6faedb7}, !- Schedule Type Limits Name
  Through: 6/30,                          !- Field 1
  For: WinterDesignDay,                   !- Field 2
  Until: 24:00,                           !- Field 3
  21,                                     !- Field 4
  For: WeekEnds Holidays SummerDesignDay, !- Field 5
  Until: 24:00,                           !- Field 6
  16,                                     !- Field 7
  For: AllOtherDays,                      !- Field 8
  Until: 06:00,                           !- Field 9
  16,                                     !- Field 10
  Until: 21:00,                           !- Field 11
  21,                                     !- Field 12
  Until: 24:00,                           !- Field 13
  16,                                     !- Field 14
  Through: 9/1,                           !- Field 15
  For: WinterDesignDay,                   !- Field 16
  Until: 24:00,                           !- Field 17
  21,                                     !- Field 18
  For: WeekEnds Holidays SummerDesignDay, !- Field 19
  Until: 24:00,                           !- Field 20
  16,                                     !- Field 21
  For: AllOtherDays,                      !- Field 22
  Until: 07:00,                           !- Field 23
  16,                                     !- Field 24
  Until: 18:00,                           !- Field 25
  21,                                     !- Field 26
  Until: 24:00,                           !- Field 27
  16,                                     !- Field 28
  Through: 12/31,                         !- Field 29
  For: WinterDesignDay,                   !- Field 30
  Until: 24:00,                           !- Field 31
  21,                                     !- Field 32
  For: WeekEnds Holidays SummerDesignDay, !- Field 33
  Until: 24:00,                           !- Field 34
  16,                                     !- Field 35
  For: AllOtherDays,                      !- Field 36
  Until: 06:00,                           !- Field 37
  16,                                     !- Field 38
  Until: 21:00,                           !- Field 39
  21,                                     !- Field 40
  Until: 24:00,                           !- Field 41
  16;                                     !- Field 42

OS:ScheduleTypeLimits,
  {626f285a-3e19-4c80-ad90-6b36a6faedb7}, !- Handle
  Temperature,                            !- Name
  -60,                                    !- Lower Limit Value
  200,                                    !- Upper Limit Value
  CONTINUOUS,                             !- Numeric Type
  Temperature;                            !- Unit Type

OS:Schedule:Compact,
  {9aa90a7d-3db6-475a-bb44-d01b0f2f15c6}, !- Handle
  CLGSETP_SCH,                            !- Name
  {626f285a-3e19-4c80-ad90-6b36a6faedb7}, !- Schedule Type Limits Name
  Through: 6/30,                          !- Field 1
  For: SummerDesignDay,                   !- Field 2
  Until: 24:00,                           !- Field 3
  24,                                     !- Field 4
  For: WeekEnds Holidays WinterDesignDay, !- Field 5
  Until: 24:00,                           !- Field 6
  27,                                     !- Field 7
  For: AllOtherDays,                      !- Field 8
  Until: 06:00,                           !- Field 9
  27,                                     !- Field 10
  Until: 21:00,                           !- Field 11
  24,                                     !- Field 12
  Until: 24:00,                           !- Field 13
  27,                                     !- Field 14
  Through: 9/1,                           !- Field 15
  For: SummerDesignDay,                   !- Field 16
  Until: 24:00,                           !- Field 17
  24,                                     !- Field 18
  For: WeekEnds Holidays WinterDesignDay, !- Field 19
  Until: 24:00,                           !- Field 20
  27,                                     !- Field 21
  For: AllOtherDays,                      !- Field 22
  Until: 07:00,                           !- Field 23
  27,                                     !- Field 24
  Until: 18:00,                           !- Field 25
  24,                                     !- Field 26
  Until: 24:00,                           !- Field 27
  27,                                     !- Field 28
  Through: 12/31,                         !- Field 29
  For: SummerDesignDay,                   !- Field 30
  Until: 24:00,                           !- Field 31
  24,                                     !- Field 32
  For: WeekEnds Holidays WinterDesignDay, !- Field 33
  Until: 24:00,                           !- Field 34
  27,                                     !- Field 35
  For: AllOtherDays,                      !- Field 36
  Until: 06:00,                           !- Field 37
  27,                                     !- Field 38
  Until: 21:00,                           !- Field 39
  24,                                     !- Field 40
  Until: 24:00,                           !- Field 41
  27;                                     !- Field 42

OS:WindowProperty:FrameAndDivider,
  {d5b84bd5-6f0e-4c04-8079-3c3f5a8eb620}, !- Handle
  Al w/Break Frame,                       !- Name
  0.0572,                                 !- Frame Width {m}
  0.0254,                                 !- Frame Outside Projection {m}
  0.0254,                                 !- Frame Inside Projection {m}
  56.424,                                 !- Frame Conductance {W/m2-K}
  1.6393,                                 !- Ratio of Frame-Edge Glass Conductance to Center-Of-Glass Conductance
  0.9,                                    !- Frame Solar Absorptance
  0.9,                                    !- Frame Visible Absorptance
  0.9,                                    !- Frame Thermal Hemispherical Emissivity
  DividedLite,                            !- Divider Type
  0,                                      !- Divider Width {m}
  0,                                      !- Number of Horizontal Dividers
  0,                                      !- Number of Vertical Dividers
  ,                                       !- Divider Outside Projection {m}
  ,                                       !- Divider Inside Projection {m}
  ,                                       !- Divider Conductance {W/m2-K}
  1,                                      !- Ratio of Divider-Edge Glass Conductance to Center-Of-Glass Conductance
  ,                                       !- Divider Solar Absorptance
  ,                                       !- Divider Visible Absorptance
  0.9;                                    !- Divider Thermal Hemispherical Emissivity

OS:RunPeriodControl:DaylightSavingTime,
  {6b3dc669-6589-421c-84fd-3467456f0cf5}, !- Handle
  2nd Sunday in March,                    !- Start Date
  1st Sunday in November;                 !- End Date

OS:Surface,
  {b781f877-1695-4b90-b817-883d54b418d9}, !- Handle
  Lobby_ZN_1_FLR_1_Wall_5,                !- Name
  Wall,                                   !- Surface Type
  {37a8b6be-ef61-4f21-98fb-b66e7d2a08b5}, !- Construction Name
  {bc25a486-b3d7-4ced-83cd-ab04493078ec}, !- Space Name
  Surface,                                !- Outside Boundary Condition
  {a456852f-5fd9-4cc2-b222-211cede3169c}, !- Outside Boundary Condition Object
  NoSun,                                  !- Sun Exposure
  NoWind,                                 !- Wind Exposure
  ,                                       !- View Factor to Ground
  ,                                       !- Number of Vertices
  0, 9, 4,                                !- X,Y,Z Vertex 1 {m}
  0, 9, 0,                                !- X,Y,Z Vertex 2 {m}
  0, 0, 0,                                !- X,Y,Z Vertex 3 {m}
  0, 0, 4;                                !- X,Y,Z Vertex 4 {m}

OS:Construction,
  {37a8b6be-ef61-4f21-98fb-b66e7d2a08b5}, !- Handle
  int-walls,                              !- Name
  {eead0294-60d0-4444-833b-844784e211dc}, !- Surface Rendering Name
  {98eb46b3-7c71-448c-8f61-3311ddaed9b3}, !- Layer 1
  {98eb46b3-7c71-448c-8f61-3311ddaed9b3}; !- Layer 2

OS:Material,
  {98eb46b3-7c71-448c-8f61-3311ddaed9b3}, !- Handle
  1/2IN Gypsum,                           !- Name
  Smooth,                                 !- Roughness
  0.0127,                                 !- Thickness {m}
  0.16,                                   !- Conductivity {W/m-K}
  784.9,                                  !- Density {kg/m3}
  830,                                    !- Specific Heat {J/kg-K}
  0.9,                                    !- Thermal Absorptance
  0.92,                                   !- Solar Absorptance
  0.92;                                   !- Visible Absorptance

OS:ThermalZone,
  {6f332045-abfa-44aa-8e0c-4d93bfc2d7f0}, !- Handle
  Lobby_ZN_1_FLR_1 Thermal Zone,          !- Name
  1,                                      !- Multiplier
  ,                                       !- Ceiling Height {m}
  ,                                       !- Volume {m3}
  ,                                       !- Floor Area {m2}
  ,                                       !- Zone Inside Convection Algorithm
  ,                                       !- Zone Outside Convection Algorithm
  ,                                       !- Zone Conditioning Equipment List Name
  {c4334ac8-4394-4e4c-aed0-006733f60337}, !- Zone Air Inlet Port List
  {dee91ff2-23fd-4955-af1d-6c656d210109}, !- Zone Air Exhaust Port List
  {ec6d2ee6-fcb7-45f8-bd87-7c551a9d2b55}, !- Zone Air Node Name
  {93b4fb90-e874-4494-afb1-4c3f4a6be5d6}, !- Zone Return Air Port List
  ,                                       !- Primary Daylighting Control Name
  ,                                       !- Fraction of Zone Controlled by Primary Daylighting Control
  ,                                       !- Secondary Daylighting Control Name
  ,                                       !- Fraction of Zone Controlled by Secondary Daylighting Control
  ,                                       !- Illuminance Map Name
  {8aa775e9-2edc-4eda-8e8c-330554ad973a}, !- Group Rendering Name
  {e21feb94-0f93-488d-8611-bef2b4bf5c15}, !- Thermostat Name
  No;                                     !- Use Ideal Air Loads

OS:Node,
  {80e1451c-0658-40f8-8d2e-9a18503bbb9f}, !- Handle
  {9f5292aa-b616-40ad-aa38-8815bd823648}, !- Name
  {ec6d2ee6-fcb7-45f8-bd87-7c551a9d2b55}, !- Inlet Port
  ;                                       !- Outlet Port

OS:Connection,
  {ec6d2ee6-fcb7-45f8-bd87-7c551a9d2b55}, !- Handle
  {d00bfcd2-bb8d-4eae-b217-9656c909f097}, !- Name
  {6f332045-abfa-44aa-8e0c-4d93bfc2d7f0}, !- Source Object
  11,                                     !- Outlet Port
  {80e1451c-0658-40f8-8d2e-9a18503bbb9f}, !- Target Object
  2;                                      !- Inlet Port

OS:PortList,
  {c4334ac8-4394-4e4c-aed0-006733f60337}, !- Handle
  {8d474c7b-7a6c-462f-b51f-52505ced5c3a}, !- Name
  {6f332045-abfa-44aa-8e0c-4d93bfc2d7f0}; !- HVAC Component

OS:PortList,
  {dee91ff2-23fd-4955-af1d-6c656d210109}, !- Handle
  {7bc340a3-ae7e-4be6-ba4f-a50164c0b0f4}, !- Name
  {6f332045-abfa-44aa-8e0c-4d93bfc2d7f0}; !- HVAC Component

OS:PortList,
  {93b4fb90-e874-4494-afb1-4c3f4a6be5d6}, !- Handle
  {ab31378f-4dd2-4909-a067-067712b9cbf7}, !- Name
  {6f332045-abfa-44aa-8e0c-4d93bfc2d7f0}; !- HVAC Component

OS:Sizing:Zone,
  {eb83be6c-b595-4b84-894e-fa75a8071b54}, !- Handle
  {6f332045-abfa-44aa-8e0c-4d93bfc2d7f0}, !- Zone or ZoneList Name
  SupplyAirTemperature,                   !- Zone Cooling Design Supply Air Temperature Input Method
  12.8,                                   !- Zone Cooling Design Supply Air Temperature {C}
  11.11,                                  !- Zone Cooling Design Supply Air Temperature Difference {deltaC}
  SupplyAirTemperature,                   !- Zone Heating Design Supply Air Temperature Input Method
  50,                                     !- Zone Heating Design Supply Air Temperature {C}
  11.11,                                  !- Zone Heating Design Supply Air Temperature Difference {deltaC}
  0.0085,                                 !- Zone Cooling Design Supply Air Humidity Ratio {kg-H2O/kg-air}
  0.008,                                  !- Zone Heating Design Supply Air Humidity Ratio {kg-H2O/kg-air}
  ,                                       !- Zone Heating Sizing Factor
  ,                                       !- Zone Cooling Sizing Factor
  DesignDay,                              !- Cooling Design Air Flow Method
  ,                                       !- Cooling Design Air Flow Rate {m3/s}
  ,                                       !- Cooling Minimum Air Flow per Zone Floor Area {m3/s-m2}
  ,                                       !- Cooling Minimum Air Flow {m3/s}
  ,                                       !- Cooling Minimum Air Flow Fraction
  DesignDay,                              !- Heating Design Air Flow Method
  ,                                       !- Heating Design Air Flow Rate {m3/s}
  ,                                       !- Heating Maximum Air Flow per Zone Floor Area {m3/s-m2}
  ,                                       !- Heating Maximum Air Flow {m3/s}
  ,                                       !- Heating Maximum Air Flow Fraction
  No,                                     !- Account for Dedicated Outdoor Air System
  NeutralSupplyAir,                       !- Dedicated Outdoor Air System Control Strategy
  autosize,                               !- Dedicated Outdoor Air Low Setpoint Temperature for Design {C}
  autosize;                               !- Dedicated Outdoor Air High Setpoint Temperature for Design {C}

OS:ZoneHVAC:EquipmentList,
  {139c087c-8279-4a72-888e-afcd5d9e7898}, !- Handle
  {d410222a-5c14-4d79-b541-22f28d7618ff}, !- Name
  {6f332045-abfa-44aa-8e0c-4d93bfc2d7f0}; !- Thermal Zone

OS:Space,
  {bc25a486-b3d7-4ced-83cd-ab04493078ec}, !- Handle
  Lobby_ZN_1_FLR_1,                       !- Name
  ,                                       !- Space Type Name
  ,                                       !- Default Construction Set Name
  ,                                       !- Default Schedule Set Name
  0,                                      !- Direction of Relative North {deg}
  64,                                     !- X Origin {m}