
OS:Version,
  {ce9041fd-54f1-4748-8f3a-d77c9844d109}, !- Handle
  3.0.0;                                  !- Version Identifier

OS:Site,
  {c73e00ae-5a51-4362-8024-9b0463e4d437}, !- Handle
  USA IL-CHICAGO-OHARE,                   !- Name
  41.77,                                  !- Latitude {deg}
  -87.75,                                 !- Longitude {deg}
  -6,                                     !- Time Zone {hr}
  190,                                    !- Elevation {m}
  City;                                   !- Terrain

OS:SimulationControl,
  {5287fba3-de4f-4510-acb5-3b451a53db1b}, !- Handle
  Yes,                                    !- Do Zone Sizing Calculation
  Yes,                                    !- Do System Sizing Calculation
  Yes,                                    !- Do Plant Sizing Calculation
  Yes,                                    !- Run Simulation for Sizing Periods
  No,                                     !- Run Simulation for Weather File Run Periods
  0.04,                                   !- Loads Convergence Tolerance Value {W}
  0.2,                                    !- Temperature Convergence Tolerance Value {deltaC}
  FullInteriorAndExterior,                !- Solar Distribution
  25,                                     !- Maximum Number of Warmup Days
  6;                                      !- Minimum Number of Warmup Days

OS:Building,
  {12e27853-1902-4390-8630-980f2548ad91}, !- Handle
  Ref Bldg OutPatient New2004_v1.3_5.0,   !- Name
  ,                                       !- Building Sector Type
  0,                                      !- North Axis {deg}
  ,                                       !- Nominal Floor to Floor Height {m}
  ,                                       !- Space Type Name
  ,                                       !- Default Construction Set Name
  ;                                       !- Default Schedule Set Name

OS:RunPeriod,
  {4a4da866-653c-4c0a-8628-626d6349b18e}, !- Handle
  Run Period 1,                           !- Name
  1,                                      !- Begin Month
  2,                                      !- Begin Day of Month
  1,                                      !- End Month
  1,                                      !- End Day of Month
  No,                                     !- Use Weather File Holidays and Special Days
  No,                                     !- Use Weather File Daylight Saving Period
  No,                                     !- Apply Weekend Holiday Rule
  Yes,                                    !- Use Weather File Rain Indicators
  Yes,                                    !- Use Weather File Snow Indicators
  ;                                       !- Number of Times Runperiod to be Repeated

OS:YearDescription,
  {3a5b299f-6d01-4065-acd5-631c3d31e250}, !- Handle
  ,                                       !- Calendar Year
  Monday;                                 !- Day of Week for Start Day

OS:RunPeriodControl:DaylightSavingTime,
  {95df3ec1-0a1a-4feb-af57-27a52dc1ce02}, !- Handle
  2nd Sunday in March,                    !- Start Date
  1st Sunday in November;                 !- End Date

OS:Surface,
  {2e844a50-3ac5-4c03-b97e-0ca5a2207f71}, !- Handle
  Floor 1 Locker Room Slab,               !- Name
  Floor,                                  !- Surface Type
  {afd73cec-0b25-4e73-9f7d-df317a18ed9b}, !- Construction Name
  {537d9008-7dd4-424d-bc45-cbb99aabf990}, !- Space Name
  Ground,                                 !- Outside Boundary Condition
  ,                                       !- Outside Boundary Condition Object
  NoSun,                                  !- Sun Exposure
  NoWind,                                 !- Wind Exposure
  ,                                       !- View Factor to Ground
  ,                                       !- Number of Vertices
  0, 0, 0,                                !- X,Y,Z Vertex 1 {m}
  0, -9.144, 0,                           !- X,Y,Z Vertex 2 {m}
  -6.7056, -9.144, 0,                     !- X,Y,Z Vertex 3 {m}
  -6.7056, 0, 0;                          !- X,Y,Z Vertex 4 {m}

OS:Construction,
  {afd73cec-0b25-4e73-9f7d-df317a18ed9b}, !- Handle
  ext-slab,                               !- Name
  {f4480605-f9ff-476e-9434-5177deb13426}, !- Surface Rendering Name
  {b0c4937a-7bde-41b2-82a4-f9e01c5c497c}, !- Layer 1
  {fd50e213-4772-40d8-8c58-59dbb8c7d2da}; !- Layer 2

OS:Material,
  {b0c4937a-7bde-41b2-82a4-f9e01c5c497c}, !- Handle
  HW CONCRETE,                            !- Name
  Rough,                                  !- Roughness
  0.2032,                                 !- Thickness {m}
  1.311,                                  !- Conductivity {W/m-K}
  2240,                                   !- Density {kg/m3}
  836.8,                                  !- Specific Heat {J/kg-K}
  0.9,                                    !- Thermal Absorptance
  0.7,                                    !- Solar Absorptance
  0.7;                                    !- Visible Absorptance

OS:Material:NoMass,
  {fd50e213-4772-40d8-8c58-59dbb8c7d2da}, !- Handle
  CP02 CARPET PAD,                        !- Name
  VeryRough,                              !- Roughness
  0.2165,                                 !- Thermal Resistance {m2-K/W}
  0.9,                                    !- Thermal Absorptance
  0.7,                                    !- Solar Absorptance
  0.8;                                    !- Visible Absorptance

OS:ThermalZone,
  {9654ebd3-cf56-4579-b194-5fe39b511547}, !- Handle
  Floor 1 Locker Room Thermal Zone,       !- Name
  1,                                      !- Multiplier
  ,                                       !- Ceiling Height {m}
  ,                                       !- Volume {m3}
  ,                                       !- Floor Area {m2}
  ,                                       !- Zone Inside Convection Algorithm
  ,                                       !- Zone Outside Convection Algorithm
  ,                                       !- Zone Conditioning Equipment List Name
  {d1d416ad-79f7-4c31-b784-e3f0c6d0a283}, !- Zone Air Inlet Port List
  {996d1243-4e32-4f18-96d0-0d62bd083643}, !- Zone Air Exhaust Port List
  {17cc0dac-c6c8-465f-abd2-36c4e70ceff7}, !- Zone Air Node Name
  {fad17574-7b8a-4805-baef-1f990d44e3ff}, !- Zone Return Air Port List
  ,                                       !- Primary Daylighting Control Name
  ,                                       !- Fraction of Zone Controlled by Primary Daylighting Control
  ,                                       !- Secondary Daylighting Control Name
  ,                                       !- Fraction of Zone Controlled by Secondary Daylighting Control
  ,                                       !- Illuminance Map Name
  {72e8f1ca-dff8-4d65-8d67-f19a135f2d53}, !- Group Rendering Name
  {ab48fee4-37ad-4143-9004-e199b8ee0650}, !- Thermostat Name
  No;                                     !- Use Ideal Air Loads

OS:Node,
  {b6115ad9-ccbf-4ad3-b5bc-5d79793a4c97}, !- Handle
  {3f8113b9-7d56-4c54-b448-ab25a5ada2ad}, !- Name
  {17cc0dac-c6c8-465f-abd2-36c4e70ceff7}, !- Inlet Port
  ;                                       !- Outlet Port

OS:Connection,
  {17cc0dac-c6c8-465f-abd2-36c4e70ceff7}, !- Handle
  {a79c4be2-6cdb-47f5-bdf1-697dd7667d6f}, !- Name
  {9654ebd3-cf56-4579-b194-5fe39b511547}, !- Source Object
  11,                                     !- Outlet Port
  {b6115ad9-ccbf-4ad3-b5bc-5d79793a4c97}, !- Target Object
  2;                                      !- Inlet Port

OS:PortList,
  {d1d416ad-79f7-4c31-b784-e3f0c6d0a283}, !- Handle
  {de13f097-a086-4aaf-b911-0262a611eead}, !- Name
  {9654ebd3-cf56-4579-b194-5fe39b511547}; !- HVAC Component

OS:PortList,
  {996d1243-4e32-4f18-96d0-0d62bd083643}, !- Handle
  {52b1422d-a0d8-43de-9296-f0145c967f89}, !- Name
  {9654ebd3-cf56-4579-b194-5fe39b511547}; !- HVAC Component

OS:PortList,
  {fad17574-7b8a-4805-baef-1f990d44e3ff}, !- Handle
  {b92336f8-fe56-41e4-a1b9-6e1dac532be2}, !- Name
  {9654ebd3-cf56-4579-b194-5fe39b511547}; !- HVAC Component

OS:Sizing:Zone,
  {692eb09c-641c-412a-9af9-6e1e079e9cf7}, !- Handle
  {9654ebd3-cf56-4579-b194-5fe39b511547}, !- Zone or ZoneList Name
  SupplyAirTemperature,                   !- Zone Cooling Design Supply Air Temperature Input Method
  11.1,                                   !- Zone Cooling Design Supply Air Temperature {C}
  11.11,                                  !- Zone Cooling Design Supply Air Temperature Difference {deltaC}
  SupplyAirTemperature,                   !- Zone Heating Design Supply Air Temperature Input Method
  40,                                     !- Zone Heating Design Supply Air Temperature {C}
  11.11,                                  !- Zone Heating Design Supply Air Temperature Difference {deltaC}
  0.0085,                                 !- Zone Cooling Design Supply Air Humidity Ratio {kg-H2O/kg-air}
  0.008,                                  !- Zone Heating Design Supply Air Humidity Ratio {kg-H2O/kg-air}
  ,                                       !- Zone Heating Sizing Factor
  ,                                       !- Zone Cooling Sizing Factor
  DesignDayWithLimit,                     !- Cooling Design Air Flow Method
  ,                                       !- Cooling Design Air Flow Rate {m3/s}
  ,                                       !- Cooling Minimum Air Flow per Zone Floor Area {m3/s-m2}
  ,                                       !- Cooling Minimum Air Flow {m3/s}
  ,                                       !- Cooling Minimum Air Flow Fraction
  DesignDay,                              !- Heating Design Air Flow Method
  ,                                       !- Heating Design Air Flow Rate {m3/s}
  ,                                       !- Heating Maximum Air Flow per Zone Floor Area {m3/s-m2}
  ,                                       !- Heating Maximum Air Flow {m3/s}
  ,                                       !- Heating Maximum Air Flow Fraction
  No,                                     !- Account for Dedicated Outdoor Air System
  NeutralSupplyAir,                       !- Dedicated Outdoor Air System Control Strategy
  autosize,                               !- Dedicated Outdoor Air Low Setpoint Temperature for Design {C}
  autosize;                               !- Dedicated Outdoor Air High Setpoint Temperature for Design {C}

OS:ZoneHVAC:EquipmentList,
  {82a06cf8-ae63-48be-908d-2b3a4c34683d}, !- Handle
  {ed5e9b3b-e0e6-4144-acab-4506034cb007}, !- Name
  {9654ebd3-cf56-4579-b194-5fe39b511547}; !- Thermal Zone

OS:Space,
  {537d9008-7dd4-424d-bc45-cbb99aabf990}, !- Handle
  Floor 1 Locker Room,                    !- Name
  ,                                       !- Space Type Name
  ,                                       !- Default Construction Set Name
  ,                                       !- Default Schedule Set Name
  0,                                      !- Direction of Relative North {deg}
  29.8704,                                !- X Origin {m}
  28.3464,                                !- Y Origin {m}
  0,                                      !- Z Origin {m}
  ,                                       !- Building Story Name
  {9654ebd3-cf56-4579-b194-5fe39b511547}, !- Thermal Zone Name
  Yes,                                    !- Part of Total Floor Area
  {c63b08c7-3ffb-4609-9bb9-0ae1d499a025}; !- Design Specification Outdoor Air Object Name

OS:ThermostatSetpoint:DualSetpoint,
  {ab48fee4-37ad-4143-9004-e199b8ee0650}, !- Handle
  Typical DualSPSched,                    !- Name
  {3e5ba7a2-df20-4cf3-a373-a3fc814c9c9d}, !- Heating Setpoint Temperature Schedule Name
  {c4ecf227-599d-4c17-9aad-4f33304e4b35}; !- Cooling Setpoint Temperature Schedule Name

OS:Schedule:Compact,
  {3e5ba7a2-df20-4cf3-a373-a3fc814c9c9d}, !- Handle
  HTGSETP_SCH,                            !- Name
  {2d406872-e360-4e73-b231-e861db665acb}, !- Schedule Type Limits Name
  Through: 12/31,                         !- Field 1
  For: Weekdays SummerDesignDay,          !- Field 2
  Until: 05:00,                           !- Field 3
  18.3,                                   !- Field 4
  Until: 18:00,                           !- Field 5
  21.1,                                   !- Field 6
  Until: 24:00,                           !- Field 7
  18.3,                                   !- Field 8
  For: Saturdays WinterDesignDay,         !- Field 9
  Until: 07:00,                           !- Field 10
  18.3,                                   !- Field 11
  Until: 15:00,                           !- Field 12
  21.1,                                   !- Field 13
  Until: 24:00,                           !- Field 14
  18.3,                                   !- Field 15
  For: AllOtherDays,                      !- Field 16
  Until: 24:00,                           !- Field 17
  18.3;                                   !- Field 18

OS:ScheduleTypeLimits,
  {2d406872-e360-4e73-b231-e861db665acb}, !- Handle
  Temperature,                            !- Name
  -60,                                    !- Lower Limit Value
  200,                                    !- Upper Limit Value
  CONTINUOUS,                             !- Numeric Type
  Temperature;                            !- Unit Type

OS:Schedule:Compact,
  {c4ecf227-599d-4c17-9aad-4f33304e4b35}, !- Handle
  CLGSETP_SCH,                            !- Name
  {2d406872-e360-4e73-b231-e861db665acb}, !- Schedule Type Limits Name
  Through: 12/31,                         !- Field 1
  For: Weekdays SummerDesignDay,          !- Field 2
  Until: 05:00,                           !- Field 3
  25.0,                                   !- Field 4
  Until: 18:00,                           !- Field 5
  22.2,                                   !- Field 6
  Until: 24:00,                           !- Field 7
  25.0,                                   !- Field 8
  For: Saturdays WinterDesignDay,         !- Field 9
  Until: 07:00,                           !- Field 10
  25.0,                                   !- Field 11
  Until: 15:00,                           !- Field 12
  22.2,                                   !- Field 13
  Until: 24:00,                           !- Field 14
  25.0,                                   !- Field 15
  For: AllOtherDays,                      !- Field 16
  Until: 24:00,                           !- Field 17
  25.0;                                   !- Field 18

OS:ScheduleTypeLimits,
  {7dc3117e-f03c-47f0-a079-343fb6ae14ba}, !- Handle
  {02069de4-7a2d-409b-a0aa-848235934f68}; !- Name

OS:ScheduleTypeLimits,
  {a2ed1e22-b845-4f8a-919d-10f177b5ea1f}, !- Handle
  Fraction,                               !- Name
  0,                                      !- Lower Limit Value
  1,                                      !- Upper Limit Value
  CONTINUOUS;                             !- Numeric Type

OS:ScheduleTypeLimits,
  {3f3a412c-bbc9-4ade-892c-ac4cd7fc27a5}, !- Handle
  On/Off,                                 !- Name
  0,                                      !- Lower Limit Value
  1,                                      !- Upper Limit Value
  DISCRETE,                               !- Numeric Type
  Availability;                           !- Unit Type

OS:ScheduleTypeLimits,
  {fd45adcb-f40b-4552-ad00-1bf7b9e67f35}, !- Handle
  Control Type,                           !- Name
  0,                                      !- Lower Limit Value
  4,                                      !- Upper Limit Value
  DISCRETE,                               !- Numeric Type
  ControlMode;                            !- Unit Type

OS:ScheduleTypeLimits,
  {c704e545-cfd1-4233-85dd-e73605ade377}, !- Handle
  Humidity,                               !- Name
  10,                                     !- Lower Limit Value
  90,                                     !- Upper Limit Value
  CONTINUOUS;                             !- Numeric Type

OS:ScheduleTypeLimits,
  {47da10e0-324b-4fb1-acc3-6b5f03027b8a}, !- Handle
  {a39e2c02-2ffe-4f3d-b75d-364f0782d8f5}; !- Name

OS:Lights:Definition,
  {0368b073-1db6-4e88-a362-68731f2b9a3b}, !- Handle
  Floor 3 Physical Therapy 1_Lights Definition, !- Name
  Watts/Area,                             !- Design Level Calculation Method
  ,                                       !- Lighting Level {W}
  9.69,                                   !- Watts per Space Floor Area {W/m2}
  ,                                       !- Watts per Person {W/person}
  0.7,                                    !- Fraction Radiant
  0.2,                                    !- Fraction Visible
  0,                                      !- Return Air Fraction
  No;                                     !- Return Air Fraction Calculated from Plenum Temperature

OS:Lights,
  {8396a3d5-81d2-41f4-9f47-b3995a711e06}, !- Handle
  Floor 3 Physical Therapy 1_Lights,      !- Name
  {0368b073-1db6-4e88-a362-68731f2b9a3b}, !- Lights Definition Name
  {494696f7-ec06-46cf-9ca6-e38827209fd5}, !- Space or SpaceType Name
  {76ee1fb3-7b32-4f0c-8172-4f0a29f1a5bd}, !- Schedule Name
  1,                                      !- Fraction Replaceable
  ,                                       !- Multiplier
  General;                                !- End-Use Subcategory

OS:ThermalZone,
  {8e8cdb72-03a4-45d4-b0e3-6a8f123e9bd0}, !- Handle
  Floor 3 Physical Therapy 1 Thermal Zone, !- Name
  1,                                      !- Multiplier
  ,                                       !- Ceiling Height {m}
  ,                                       !- Volume {m3}
  ,                                       !- Floor Area {m2}
  ,                                       !- Zone Inside Convection Algorithm
  ,                                       !- Zone Outside Convection Algorithm
  ,                                       !- Zone Conditioning Equipment List Name
  {6dd56358-b0fb-453e-b4f1-6b8fb575dd56}, !- Zone Air Inlet Port List
  {d1276ea9-e22a-4655-9217-067bf0eb44fd}, !- Zone Air Exhaust Port List
  {b00d5028-f14d-4b45-98ef-66c26d91f455}, !- Zone Air Node Name
  {424b51d4-d673-4360-8403-40d76849fb4b}, !- Zone Return Air Port List
  ,                                       !- Primary Daylighting Control Name
  ,                                       !- Fraction of Zone Controlled by Primary Daylighting Control
  ,                                       !- Secondary Daylighting Control Name
  ,                                       !- Fraction of Zone Controlled by Secondary Daylighting Control
  ,                                       !- Illuminance Map Name
  {4a9b3cb1-caae-4457-a14e-83a586103aa0}, !- Group Rendering Name
  {09887abb-a093-4c22-95e1-b1379d98ff75}, !- Thermostat Name
  No;                                     !- Use Ideal Air Loads

OS:Node,
  {cbd0c70c-00e0-45b6-89db-4839a6a87d8b}, !- Handle
  {416c0f20-85cf-4721-9d36-b64300e5448b}, !- Name
  {b00d5028-f14d-4b45-98ef-66c26d91f455}, !- Inlet Port
  ;                                       !- Outlet Port

OS:Connection,
  {b00d5028-f14d-4b45-98ef-66c26d91f455}, !- Handle
  {392f7d97-8695-480f-91c0-9007f8d0b259}, !- Name
  {8e8cdb72-03a4-45d4-b0e3-6a8f123e9bd0}, !- Source Object
  11,                                     !- Outlet Port
  {cbd0c70c-00e0-45b6-89db-4839a6a87d8b}, !- Target Object
  2;                                      !- Inlet Port

OS:PortList,
  {6dd56358-b0fb-453e-b4f1-6b8fb575dd56}, !- Handle
  {6c98946c-77f6-4ee6-b96f-d152b2ae5656}, !- Name
  {8e8cdb72-03a4-45d4-b0e3-6a8f123e9bd0}; !- HVAC Component

OS:PortList,
  {d1276ea9-e22a-4655-9217-067bf0eb44fd}, !- Handle
  {5df21cf9-5203-4be4-8330-899b048de9ed}, !- Name
  {8e8cdb72-03a4-45d4-b0e3-6a8f123e9bd0}; !- HVAC Component

OS:PortList,
  {424b51d4-d673-4360-8403-40d76849fb4b}, !- Handle
  {96650472-d88e-4296-987a-2681a1f0b327}, !- Name
  {8e8cdb72-03a4-45d4-b0e3-6a8f123e9bd0}; !- HVAC Component

OS:Sizing:Zone,
  {61df123c-eba9-46f6-af45-459105db6744}, !- Handle
  {8e8cdb72-03a4-45d4-b0e3-6a8f123e9bd0}, !- Zone or ZoneList Name
  SupplyAirTemperature,                   !- Zone Cooling Design Supply Air Temperature Input Method
  12.8,                                   !- Zone Cooling Design Supply Air Temperature {C}
  11.11,                                  !- Zone Cooling Design Supply Air Temperature Difference {deltaC}
  SupplyAirTemperature,                   !- Zone Heating Design Supply Air Temperature Input Method
  40,                                     !- Zone Heating Design Supply Air Temperature {C}
  11.11,                                  !- Zone Heating Design Supply Air Temperature Difference {deltaC}
  0.0085,                                 !- Zone Cooling Design Supply Air Humidity Ratio {kg-H2O/kg-air}
  0.008,                                  !- Zone Heating Design Supply Air Humidity Ratio {kg-H2O/kg-air}
  ,                                       !- Zone Heating Sizing Factor
  ,                                       !- Zone Cooling Sizing Factor
  DesignDayWithLimit,                     !- Cooling Design Air Flow Method
  ,                                       !- Cooling Design Air Flow Rate {m3/s}
  ,                                       !- Cooling Minimum Air Flow per Zone Floor Area {m3/s-m2}
  0.613532,                               !- Cooling Minimum Air Flow {m3/s}
  ,                                       !- Cooling Minimum Air Flow Fraction
  DesignDay,                              !- Heating Design Air Flow Method
  ,                                       !- Heating Design Air Flow Rate {m3/s}
  ,                                       !- Heating Maximum Air Flow per Zone Floor Area {m3/s-m2}
  ,                                       !- Heating Maximum Air Flow {m3/s}
  ,                                       !- Heating Maximum Air Flow Fraction
  No,                                     !- Account for Dedicated Outdoor Air System
  NeutralSupplyAir,                       !- Dedicated Outdoor Air System Control Strategy
  autosize,                               !- Dedicated Outdoor Air Low Setpoint Temperature for Design {C}
  autosize;                               !- Dedicated Outdoor Air High Setpoint Temperature for Design {C}

OS:ZoneHVAC:EquipmentList,
  {ed1565bb-5b2e-465b-a0c9-06e8afebc89d}, !- Handle
  {ba1c191a-6c27-4f88-98ca-b524350840eb}, !- Name
  {8e8cdb72-03a4-45d4-b0e3-6a8f123e9bd0}; !- Thermal Zone

OS:Space,
  {494696f7-ec06-46cf-9ca6-e38827209fd5}, !- Handle
  Floor 3 Physical Therapy 1,             !- Name
  ,                                       !- Space Type Name
  ,                                       !- Default Construction Set Name
  ,                                       !- Default Schedule Set Name
  0,                                      !- Direction of Relative North {deg}
  50.5968,                                !- X Origin {m}
  0,                                      !- Y Origin {m}
  6.096,                                  !- Z Origin {m}
  ,                                       !- Building Story Name
  {8e8cdb72-03a4-45d4-b0e3-6a8f123e9bd0}, !- Thermal Zone Name
  Yes,                                    !- Part of Total Floor Area
  {9ab29804-e5dd-4f57-bb00-6fed4884038d}; !- Design Specification Outdoor Air Object Name

OS:ThermostatSetpoint:DualSetpoint,
  {09887abb-a093-4c22-95e1-b1379d98ff75}, !- Handle
  {7083c350-9a3c-40c6-a630-8d79218bd818}, !- Name
  {3e5ba7a2-df20-4cf3-a373-a3fc814c9c9d}, !- Heating Setpoint Temperature Schedule Name
  {c4ecf227-599d-4c17-9aad-4f33304e4b35}; !- Cooling Setpoint Temperature Schedule Name

OS:Schedule:Compact,
  {76ee1fb3-7b32-4f0c-8172-4f0a29f1a5bd}, !- Handle
  BLDG_LIGHT_SCH,                         !- Name
  {a2ed1e22-b845-4f8a-919d-10f177b5ea1f}, !- Schedule Type Limits Name
  Through: 12/31,                         !- Field 1
  For: Weekdays SummerDesignDay,          !- Field 2
  Until: 04:00,                           !- Field 3
  0.10,                                   !- Field 4
  Until: 06:00,                           !- Field 5
  0.30,                                   !- Field 6
  Until: 07:00,                           !- Field 7
  0.60,                                   !- Field 8
  Until: 18:00,                           !- Field 9
  0.90,                                   !- Field 10
  Until: 20:00,                           !- Field 11
  0.60,                                   !- Field 12
  Until: 22:00,                           !- Field 13
  0.30,                                   !- Field 14
  Until: 24:00,                           !- Field 15
  0.10,                                   !- Field 16
  For: Saturday,                          !- Field 17
  Until: 07:00,                           !- Field 18
  0.10,                                   !- Field 19
  Until: 09:00,                           !- Field 20
  0.30,                                   !- Field 21
  Until: 15:00,                           !- Field 22
  0.40,                                   !- Field 23
  Until: 20:00,                           !- Field 24
  0.30,                                   !- Field 25
  Until: 24:00,                           !- Field 26
  0.10,                                   !- Field 27
  For: AllOtherDays,                      !- Field 28
  Until: 08:00,                           !- Field 29
  0.05,                                   !- Field 30
  Until: 17:00,                           !- Field 31
  0.10,                                   !- Field 32
  Until: 24:00,                           !- Field 33
  0.05;                                   !- Field 34

OS:Schedule:Compact,
  {3f7c8ec7-19c3-4163-8499-6cd8b053e3f5}, !- Handle
  ALWAYS_ON,                              !- Name
  {3f3a412c-bbc9-4ade-892c-ac4cd7fc27a5}, !- Schedule Type Limits Name
  Through: 12/31,                         !- Field 1
  For: AllDays,                           !- Field 2
  Until: 24:00,                           !- Field 3
  1;                                      !- Field 4

OS:HeatBalanceAlgorithm,
  {15da21d1-0c8b-44b2-a9d1-ef2e61b2aae7}, !- Handle
  ConductionTransferFunction,             !- Algorithm
  200;                                    !- Surface Temperature Upper Limit {C}

OS:Sizing:Parameters,
  {abc2a5aa-1508-4f28-9b8e-7f1432867a53}, !- Handle
  1.5,                                    !- Heating Sizing Factor
  1.5,                                    !- Cooling Sizing Factor
  6;                                      !- Timesteps in Averaging Window

OS:ConvergenceLimits,
  {37244c86-a09a-4427-9720-d373fbb4978b}, !- Handle
  2,                                      !- Minimum System Timestep {minutes}
  25;                                     !- Maximum HVAC Iterations

OS:Surface,
  {e9aad7d3-e9b4-4dc7-bcf8-22bfa71fb143}, !- Handle
  Floor 1 Scrub Slab,                     !- Name
  Floor,                                  !- Surface Type
  {afd73cec-0b25-4e73-9f7d-df317a18ed9b}, !- Construction Name
  {d21725b9-d54b-43a8-afed-abe3c75c973f}, !- Space Name
  Ground,                                 !- Outside Boundary Condition
  ,                                       !- Outside Boundary Condition Object
  NoSun,                                  !- Sun Exposure
  NoWind,                                 !- Wind Exposure
  ,                                       !- View Factor to Ground
  ,                                       !- Number of Vertices
  1.8288, 0, 0,                           !- X,Y,Z Vertex 1 {m}
  1.8288, -4.2672, 0,                     !- X,Y,Z Vertex 2 {m}
  0, -4.2672, 0,                          !- X,Y,Z Vertex 3 {m}
  0, 0, 0;                                !- X,Y,Z Vertex 4 {m}

OS:ThermalZone,
  {5f4bee45-dba2-4d7e-85e6-a104e29b77d6}, !- Handle
  Floor 1 Scrub Thermal Zone,             !- Name
  1,                                      !- Multiplier
  ,                                       !- Ceiling Height {m}
  ,                                       !- Volume {m3}
  ,                                       !- Floor Area {m2}
  ,                                       !- Zone Inside Convection Algorithm
  ,                                       !- Zone Outside Convection Algorithm
  ,                                       !- Zone Conditioning Equipment List Name
  {446bdaac-2c00-4097-b926-26be6dbe743b}, !- Zone Air Inlet Port List
  {9634c409-1a26-456f-b38a-768d436fcfc9}, !- Zone Air Exhaust Port List
  {797b5c26-0b48-462f-9bf3-469bd512bf68}, !- Zone Air Node Name
  {d17efd93-b5dc-4fd9-b62a-f7bcdda0f107}, !- Zone Return Air Port List
  ,                                       !- Primary Daylighting Control Name
  ,                                       !- Fraction of Zone Controlled by Primary Daylighting Control
  ,                                       !- Secondary Daylighting Control Name
  ,                                       !- Fraction of Zone Controlled by Secondary Daylighting Control
  ,                                       !- Illuminance Map Name
  {01315f24-3063-4285-a5be-9c1cd67b6edc}, !- Group Rendering Name
  {35fd25b0-bf25-4542-b602-4fe42a945a92}, !- Thermostat Name
  No;                                     !- Use Ideal Air Loads

OS:Node,
  {8dff52a9-c8fb-4afc-8570-4d5179e17759}, !- Handle
  {dbb5da69-b5aa-4c5c-83e3-a09ddbf3cb25}, !- Name
  {797b5c26-0b48-462f-9bf3-469bd512bf68}, !- Inlet Port
  ;                                       !- Outlet Port

OS:Connection,
  {797b5c26-0b48-462f-9bf3-469bd512bf68}, !- Handle
  {7ddb27bd-3ed3-43bd-ba77-d904e719d1a2}, !- Name
  {5f4bee45-dba2-4d7e-85e6-a104e29b77d6}, !- Source Object
  11,                                     !- Outlet Port
  {8dff52a9-c8fb-4afc-8570-4d5179e17759}, !- Target Object
  2;                                      !- Inlet Port

OS:PortList,
  {446bdaac-2c00-4097-b926-26be6dbe743b}, !- Handle
  {b7ef9951-8623-4085-8ac7-ea1c95b2d914}, !- Name
  {5f4bee45-dba2-4d7e-85e6-a104e29b77d6}; !- HVAC Component

OS:PortList,
  {9634c409-1a26-456f-b38a-768d436fcfc9}, !- Handle
  {1670c1b4-6a06-43db-a720-3fb64fff03d8}, !- Name