
OS:Version,
  {c2b76a30-0e54-4c1f-a16c-8679cc94f62d}, !- Handle
  3.0.0;                                  !- Version Identifier

OS:Site,
  {2c8f11ed-faf6-4c47-934e-8ec01bada804}, !- Handle
  USA IL-CHICAGO-OHARE,                   !- Name
  41.77,                                  !- Latitude {deg}
  -87.75,                                 !- Longitude {deg}
  -6,                                     !- Time Zone {hr}
  190,                                    !- Elevation {m}
  City;                                   !- Terrain

OS:SimulationControl,
  {38b84582-5ae0-424d-859c-3b439c749b81}, !- Handle
  Yes,                                    !- Do Zone Sizing Calculation
  Yes,                                    !- Do System Sizing Calculation
  Yes,                                    !- Do Plant Sizing Calculation
  Yes,                                    !- Run Simulation for Sizing Periods
  No,                                     !- Run Simulation for Weather File Run Periods
  0.04,                                   !- Loads Convergence Tolerance Value {W}
  0.2,                                    !- Temperature Convergence Tolerance Value {deltaC}
  FullInteriorAndExterior,                !- Solar Distribution
  25,                                     !- Maximum Number of Warmup Days
  6,                                      !- Minimum Number of Warmup Days
  Yes,                                    !- Do HVAC Sizing Simulation for Sizing Periods
  2;                                      !- Maximum Number of HVAC Sizing Simulation Passes

OS:Building,
  {b9992957-1c52-4cbd-98d8-01e81b0d76a6}, !- Handle
  Ref Bldg Large Office New2004_v1.3_5.0, !- Name
  ,                                       !- Building Sector Type
  0,                                      !- North Axis {deg}
  ,                                       !- Nominal Floor to Floor Height {m}
  ,                                       !- Space Type Name
  ,                                       !- Default Construction Set Name
  ;                                       !- Default Schedule Set Name

OS:Schedule:Compact,
  {709431da-d2d0-45e0-91d1-2f924fcce7a4}, !- Handle
  BLDG_EQUIP_SCH,                         !- Name
  {7339dee3-036f-407b-b83d-76aae5b197dd}, !- Schedule Type Limits Name
  Through: 12/31,                         !- Field 1
  For: Weekdays,                          !- Field 2
  Until: 08:00,                           !- Field 3
  0.40,                                   !- Field 4
  Until: 12:00,                           !- Field 5
  0.90,                                   !- Field 6
  Until: 13:00,                           !- Field 7
  0.80,                                   !- Field 8
  Until: 17:00,                           !- Field 9
  0.90,                                   !- Field 10
  Until: 18:00,                           !- Field 11
  0.80,                                   !- Field 12
  Until: 20:00,                           !- Field 13
  0.60,                                   !- Field 14
  Until: 22:00,                           !- Field 15
  0.50,                                   !- Field 16
  Until: 24:00,                           !- Field 17
  0.40,                                   !- Field 18
  For: Saturday,                          !- Field 19
  Until: 06:00,                           !- Field 20
  0.30,                                   !- Field 21
  Until: 08:00,                           !- Field 22
  0.4,                                    !- Field 23
  Until: 14:00,                           !- Field 24
  0.5,                                    !- Field 25
  Until: 17:00,                           !- Field 26
  0.35,                                   !- Field 27
  Until: 24:00,                           !- Field 28
  0.30,                                   !- Field 29
  For: SummerDesignDay,                   !- Field 30
  Until: 24:00,                           !- Field 31
  1.0,                                    !- Field 32
  For: WinterDesignDay,                   !- Field 33
  Until: 24:00,                           !- Field 34
  0.0,                                    !- Field 35
  For: AllOtherDays,                      !- Field 36
  Until: 24:00,                           !- Field 37
  0.30;                                   !- Field 38

OS:ScheduleTypeLimits,
  {7339dee3-036f-407b-b83d-76aae5b197dd}, !- Handle
  Fraction,                               !- Name
  0,                                      !- Lower Limit Value
  1,                                      !- Upper Limit Value
  CONTINUOUS;                             !- Numeric Type

OS:RunPeriod,
  {757f7159-421c-4a48-9013-033752b67f87}, !- Handle
  Run Period 1,                           !- Name
  1,                                      !- Begin Month
  1,                                      !- Begin Day of Month
  12,                                     !- End Month
  31,                                     !- End Day of Month
  No,                                     !- Use Weather File Holidays and Special Days
  No,                                     !- Use Weather File Daylight Saving Period
  No,                                     !- Apply Weekend Holiday Rule
  Yes,                                    !- Use Weather File Rain Indicators
  Yes,                                    !- Use Weather File Snow Indicators
  ;                                       !- Number of Times Runperiod to be Repeated

OS:YearDescription,
  {4a229816-0376-4a1e-b8c6-3d52aecfb67a}, !- Handle
  ,                                       !- Calendar Year
  Sunday;                                 !- Day of Week for Start Day

OS:RunPeriodControl:DaylightSavingTime,
  {c03b6c3d-9c87-468c-a80d-6b92f5b534c6}, !- Handle
  2nd Sunday in March,                    !- Start Date
  1st Sunday in November;                 !- End Date

OS:ScheduleTypeLimits,
  {e14646c8-9c34-46fc-a717-b1de84ba7792}, !- Handle
  {9a0f7d8b-1320-4074-9c69-338921b7e2ca}; !- Name

OS:ScheduleTypeLimits,
  {8737f2cc-59df-4886-838f-317c06ce4bac}, !- Handle
  Temperature,                            !- Name
  -60,                                    !- Lower Limit Value
  200,                                    !- Upper Limit Value
  CONTINUOUS,                             !- Numeric Type
  Temperature;                            !- Unit Type

OS:ScheduleTypeLimits,
  {f6180717-23df-4937-bd59-aac7fbc5e327}, !- Handle
  On/Off,                                 !- Name
  0,                                      !- Lower Limit Value
  1,                                      !- Upper Limit Value
  DISCRETE,                               !- Numeric Type
  Availability;                           !- Unit Type

OS:ScheduleTypeLimits,
  {4fb3725b-abb1-4c72-967a-29f610b30c2d}, !- Handle
  Control Type,                           !- Name
  0,                                      !- Lower Limit Value
  4,                                      !- Upper Limit Value
  DISCRETE,                               !- Numeric Type
  ControlMode;                            !- Unit Type

OS:ScheduleTypeLimits,
  {fe1bf66a-d814-470c-97da-4e7072034b49}, !- Handle
  Humidity,                               !- Name
  10,                                     !- Lower Limit Value
  90,                                     !- Upper Limit Value
  CONTINUOUS;                             !- Numeric Type

OS:ScheduleTypeLimits,
  {cca9415f-54d8-4c23-9f25-77f381bc3be1}, !- Handle
  {decd2d1b-3342-4a06-ba8c-c89b9e28ed69}; !- Name

OS:Schedule:Compact,
  {e58b1480-1a57-4db1-b912-f6cd64e577c8}, !- Handle
  ALWAYS_ON,                              !- Name
  {f6180717-23df-4937-bd59-aac7fbc5e327}, !- Schedule Type Limits Name
  Through: 12/31,                         !- Field 1
  For: AllDays,                           !- Field 2
  Until: 24:00,                           !- Field 3
  1;                                      !- Field 4

OS:HeatBalanceAlgorithm,
  {6a82b45c-e965-4135-b928-fab3f0622f60}, !- Handle
  ConductionTransferFunction,             !- Algorithm
  200;                                    !- Surface Temperature Upper Limit {C}

OS:Sizing:Parameters,
  {516432df-ce59-440d-84ed-e28eb87bb27c}, !- Handle
  1.33,                                   !- Heating Sizing Factor
  1.33,                                   !- Cooling Sizing Factor
  6;                                      !- Timesteps in Averaging Window

OS:ConvergenceLimits,
  {f5eb2122-d9bd-42e0-a7a8-775ea09712de}, !- Handle
  2,                                      !- Minimum System Timestep {minutes}
  25;                                     !- Maximum HVAC Iterations

OS:ShadowCalculation,
  {5ad4190c-ba4f-4a7b-9894-36718d467863}, !- Handle
  PolygonClipping,                        !- Shading Calculation Method
  Periodic,                               !- Shading Calculation Update Frequency Method
  7,                                      !- Shading Calculation Update Frequency
  15000,                                  !- Maximum Figures in Shadow Overlap Calculations
  ,                                       !- Polygon Clipping Algorithm
  512,                                    !- Pixel Counting Resolution
  ,                                       !- Sky Diffuse Modeling Algorithm
  No,                                     !- Output External Shading Calculation Results
  No,                                     !- Disable Self-Shading Within Shading Zone Groups
  No;                                     !- Disable Self-Shading From Shading Zone Groups to Other Zones

OS:Material,
  {6b5446ff-046f-4efe-9189-4ca23f948cc0}, !- Handle
  1IN Stucco,                             !- Name
  Smooth,                                 !- Roughness
  0.0253,                                 !- Thickness {m}
  0.6918,                                 !- Conductivity {W/m-K}
  1858,                                   !- Density {kg/m3}
  837,                                    !- Specific Heat {J/kg-K}
  0.9,                                    !- Thermal Absorptance
  0.92,                                   !- Solar Absorptance
  0.92;                                   !- Visible Absorptance

OS:Timestep,
  {edad72ac-9e6b-45a6-b57a-ba1427965773}, !- Handle
  6;                                      !- Number of Timesteps per Hour

OS:SizingPeriod:DesignDay,
  {fcda6ba9-29a0-4487-84fa-f56300b15433}, !- Handle
  CHICAGO Ann Htg 99.6% Condns DB,        !- Name
  -20.6,                                  !- Maximum Dry-Bulb Temperature {C}
  0,                                      !- Daily Dry-Bulb Temperature Range {deltaC}
  -20.6,                                  !- Humidity Indicating Conditions at Maximum Dry-Bulb
  99063,                                  !- Barometric Pressure {Pa}
  4.9,                                    !- Wind Speed {m/s}
  270,                                    !- Wind Direction {deg}
  0,                                      !- Sky Clearness
  0,                                      !- Rain Indicator
  0,                                      !- Snow Indicator
  21,                                     !- Day of Month
  1,                                      !- Month
  WinterDesignDay,                        !- Day Type
  0,                                      !- Daylight Saving Time Indicator
  Wetbulb,                                !- Humidity Indicating Type
  ,                                       !- Humidity Indicating Day Schedule Name
  ,                                       !- Dry-Bulb Temperature Range Modifier Type
  ,                                       !- Dry-Bulb Temperature Range Modifier Schedule Name
  ASHRAEClearSky;                         !- Solar Model Indicator

OS:SizingPeriod:DesignDay,
  {cace2ddd-a20c-4b99-bd3f-f49285b8d2ad}, !- Handle
  CHICAGO Ann Clg .4% Condns WB=>MDB,     !- Name
  31.2,                                   !- Maximum Dry-Bulb Temperature {C}
  10.7,                                   !- Daily Dry-Bulb Temperature Range {deltaC}
  25.5,                                   !- Humidity Indicating Conditions at Maximum Dry-Bulb
  99063,                                  !- Barometric Pressure {Pa}
  5.3,                                    !- Wind Speed {m/s}
  230,                                    !- Wind Direction {deg}
  1,                                      !- Sky Clearness
  0,                                      !- Rain Indicator
  0,                                      !- Snow Indicator
  21,                                     !- Day of Month
  7,                                      !- Month
  SummerDesignDay,                        !- Day Type
  0,                                      !- Daylight Saving Time Indicator
  Wetbulb,                                !- Humidity Indicating Type
  ,                                       !- Humidity Indicating Day Schedule Name
  ,                                       !- Dry-Bulb Temperature Range Modifier Type
  ,                                       !- Dry-Bulb Temperature Range Modifier Schedule Name
  ASHRAEClearSky;                         !- Solar Model Indicator

OS:Construction,
  {24576bf6-87f9-4afa-aa2b-5c01f7b847e0}, !- Handle
  Mass Non-res Ext Wall,                  !- Name
  {7447532a-6c52-404f-8b47-4a200a56abdb}, !- Surface Rendering Name
  {6b5446ff-046f-4efe-9189-4ca23f948cc0}, !- Layer 1
  {7fd0a721-32a9-46e2-aa4b-46f014f3023d}, !- Layer 2
  {5a6d245f-0012-4277-8cfc-f5cdbd28a055}, !- Layer 3
  {9024a8a1-cf4b-462d-89a7-cd39446dca69}; !- Layer 4

OS:Material,
  {7fd0a721-32a9-46e2-aa4b-46f014f3023d}, !- Handle
  8IN CONCRETE HW,                        !- Name
  Rough,                                  !- Roughness
  0.2032,                                 !- Thickness {m}
  1.311,                                  !- Conductivity {W/m-K}
  2240,                                   !- Density {kg/m3}
  836.8,                                  !- Specific Heat {J/kg-K}
  0.9,                                    !- Thermal Absorptance
  0.7,                                    !- Solar Absorptance
  0.7;                                    !- Visible Absorptance

OS:Material,
  {5a6d245f-0012-4277-8cfc-f5cdbd28a055}, !- Handle
  Mass NonRes Wall Insulation,            !- Name
  MediumRough,                            !- Roughness
  0.0495494599433393,                     !- Thickness {m}
  0.049,                                  !- Conductivity {W/m-K}
  265,                                    !- Density {kg/m3}
  836.8,                                  !- Specific Heat {J/kg-K}
  0.9,                                    !- Thermal Absorptance
  0.7,                                    !- Solar Absorptance
  0.7;                                    !- Visible Absorptance

OS:Material,
  {9024a8a1-cf4b-462d-89a7-cd39446dca69}, !- Handle
  1/2IN Gypsum,                           !- Name
  Smooth,                                 !- Roughness
  0.0127,                                 !- Thickness {m}
  0.16,                                   !- Conductivity {W/m-K}
  784.9,                                  !- Density {kg/m3}
  830,                                    !- Specific Heat {J/kg-K}
  0.9,                                    !- Thermal Absorptance
  0.92,                                   !- Solar Absorptance
  0.92;                                   !- Visible Absorptance

OS:Construction,
  {8d135d38-1518-490f-9609-695dadbecedc}, !- Handle
  IEAD Non-res Roof,                      !- Name
  {c248eb29-e92d-45b8-82db-af9ee4a0114f}, !- Surface Rendering Name
  {24e7e87b-de6f-474c-aa7d-4fce8d0bc9f1}, !- Layer 1
  {9c32d176-3e87-4f49-9924-e1941c72b856}, !- Layer 2
  {b2be980c-556d-42b6-a64b-3424be026019}; !- Layer 3

OS:Material,
  {24e7e87b-de6f-474c-aa7d-4fce8d0bc9f1}, !- Handle
  Roof Membrane,                          !- Name
  VeryRough,                              !- Roughness
  0.0095,                                 !- Thickness {m}
  0.16,                                   !- Conductivity {W/m-K}
  1121.29,                                !- Density {kg/m3}
  1460,                                   !- Specific Heat {J/kg-K}
  0.9,                                    !- Thermal Absorptance
  0.7,                                    !- Solar Absorptance
  0.7;                                    !- Visible Absorptance

OS:Material,
  {9c32d176-3e87-4f49-9924-e1941c72b856}, !- Handle
  IEAD NonRes Roof Insulation,            !- Name
  MediumRough,                            !- Roughness
  0.127338688569477,                      !- Thickness {m}
  0.049,                                  !- Conductivity {W/m-K}
  265,                                    !- Density {kg/m3}
  836.8,                                  !- Specific Heat {J/kg-K}
  0.9,                                    !- Thermal Absorptance
  0.7,                                    !- Solar Absorptance
  0.7;                                    !- Visible Absorptance

OS:Material,
  {b2be980c-556d-42b6-a64b-3424be026019}, !- Handle
  Metal Decking,                          !- Name
  MediumSmooth,                           !- Roughness
  0.0015,                                 !- Thickness {m}
  45.006,                                 !- Conductivity {W/m-K}
  7680,                                   !- Density {kg/m3}
  418.4,                                  !- Specific Heat {J/kg-K}
  0.9,                                    !- Thermal Absorptance
  0.7,                                    !- Solar Absorptance
  0.3;                                    !- Visible Absorptance

OS:Output:Variable,
  {85292f8e-3a19-4100-9636-cd040c74f034}, !- Handle
  {4aa51976-7ec8-4108-ac66-be775c9ae531}, !- Name
  *,                                      !- Key Value
  Site Outdoor Air Humidity Ratio,        !- Variable Name
  HOURLY;                                 !- Reporting Frequency

OS:Construction,
  {b3426c49-4deb-46eb-9165-80dc956bc45e}, !- Handle
  ext-slab,                               !- Name
  {185e59cd-9037-4fab-a424-4c5195c296eb}, !- Surface Rendering Name
  {801e1dab-f9e2-46d4-9875-4d6c3cccd5a8}, !- Layer 1
  {46fe185f-a486-4bad-b231-ec0ca66913c7}; !- Layer 2

OS:Material,
  {801e1dab-f9e2-46d4-9875-4d6c3cccd5a8}, !- Handle
  HW CONCRETE,                            !- Name
  Rough,                                  !- Roughness
  0.1016,                                 !- Thickness {m}
  1.311,                                  !- Conductivity {W/m-K}
  2240,                                   !- Density {kg/m3}
  836.8,                                  !- Specific Heat {J/kg-K}
  0.9,                                    !- Thermal Absorptance
  0.7,                                    !- Solar Absorptance
  0.7;                                    !- Visible Absorptance

OS:Material:NoMass,
  {46fe185f-a486-4bad-b231-ec0ca66913c7}, !- Handle
  CP02 CARPET PAD,                        !- Name
  VeryRough,                              !- Roughness
  0.2165,                                 !- Thermal Resistance {m2-K/W}
  0.9,                                    !- Thermal Absorptance
  0.7,                                    !- Solar Absorptance
  0.8;                                    !- Visible Absorptance

OS:Construction,
  {b762fde5-5ca1-4a94-bff8-b54dc9adbf02}, !- Handle
  int-walls,                              !- Name
  {83e15f50-fdbe-45ff-a5d3-58b8c875e0d7}, !- Surface Rendering Name
  {9024a8a1-cf4b-462d-89a7-cd39446dca69}, !- Layer 1
  {9024a8a1-cf4b-462d-89a7-cd39446dca69}; !- Layer 2

OS:Construction,
  {90b14837-508f-415d-8568-1fcb3b964fdb}, !- Handle
  INT-FLOOR-TOPSIDE,                      !- Name
  {a9a38f19-09da-46c3-80c9-8be5efec618e}, !- Surface Rendering Name
  {5ced240a-e45c-4632-9f01-6b9968311ea7}, !- Layer 1
  {46fe185f-a486-4bad-b231-ec0ca66913c7}; !- Layer 2

OS:Material,
  {5ced240a-e45c-4632-9f01-6b9968311ea7}, !- Handle
  MAT-CC05 4 HW CONCRETE,                 !- Name
  Rough,                                  !- Roughness
  0.1016,                                 !- Thickness {m}
  1.311,                                  !- Conductivity {W/m-K}
  2240,                                   !- Density {kg/m3}
  836.8,                                  !- Specific Heat {J/kg-K}
  0.9,                                    !- Thermal Absorptance
  0.7,                                    !- Solar Absorptance
  0.7;                                    !- Visible Absorptance

OS:Construction,
  {cb8fec22-0b50-4bd9-a20e-f334ce17570b}, !- Handle
  INT-FLOOR-UNDERSIDE,                    !- Name
  {41746fd2-2906-4aae-b18b-d25281563a7a}, !- Surface Rendering Name
  {46fe185f-a486-4bad-b231-ec0ca66913c7}, !- Layer 1
  {5ced240a-e45c-4632-9f01-6b9968311ea7}; !- Layer 2

OS:Construction,
  {239bad4e-74a7-4bf7-9559-660a993040bc}, !- Handle
  Underground Wall Non-res,               !- Name
  {ab73c463-514b-4aa6-940b-f54da0399f62}, !- Surface Rendering Name
  {7fd0a721-32a9-46e2-aa4b-46f014f3023d}, !- Layer 1
  {f2aa7d16-f600-4722-ab95-72b5ddfbb7bd}; !- Layer 2

OS:Material,
  {f2aa7d16-f600-4722-ab95-72b5ddfbb7bd}, !- Handle
  UGWall NonRes Insulation,               !- Name
  MediumRough,                            !- Roughness
  0.0001,                                 !- Thickness {m}
  0.049,                                  !- Conductivity {W/m-K}
  265,                                    !- Density {kg/m3}
  836.8,                                  !- Specific Heat {J/kg-K}
  0.9,                                    !- Thermal Absorptance
  0.7,                                    !- Solar Absorptance
  0.7;                                    !- Visible Absorptance

OS:Construction,
  {65b682d0-6b8c-4e09-bb16-aadced82569d}, !- Handle
  Window Non-res Fixed,                   !- Name
  {3c512b64-6f45-4a22-af7a-a5c2a17ec101}, !- Surface Rendering Name
  {7bd38bbc-9039-4468-83d9-b633e4c8db25}; !- Layer 1

OS:WindowMaterial:SimpleGlazingSystem,
  {7bd38bbc-9039-4468-83d9-b633e4c8db25}, !- Handle
  NonRes Fixed Assembly Window,           !- Name
  3.23646,                                !- U-Factor {W/m2-K}
  0.39;                                   !- Solar Heat Gain Coefficient

OS:Construction,
  {820b01a1-d86f-41db-89c0-195c76316835}, !- Handle
  DropCeiling,                            !- Name
  {52e0a789-2d73-4d0e-94b3-2fbd443665f8}, !- Surface Rendering Name
  {ff3995c0-732f-4196-9a11-c467625e67c0}; !- Layer 1

OS:Material,
  {ff3995c0-732f-4196-9a11-c467625e67c0}, !- Handle
  Std AC02,                               !- Name
  MediumSmooth,                           !- Roughness
  0.0127,                                 !- Thickness {m}
  0.057,                                  !- Conductivity {W/m-K}
  288,                                    !- Density {kg/m3}
  1339,                                   !- Specific Heat {J/kg-K}
  0.9,                                    !- Thermal Absorptance
  0.7,                                    !- Solar Absorptance
  0.2;                                    !- Visible Absorptance

OS:Construction,
  {9b9138c5-3a4c-48c2-ab77-43ed9db36fad}, !- Handle
  InteriorFurnishings,                    !- Name
  {070df2b3-d2a0-4199-9797-86e2338b2885}, !- Surface Rendering Name
  {f497dd2b-a43c-4e81-9969-9506c58e8405}; !- Layer 1

OS:Material,
  {f497dd2b-a43c-4e81-9969-9506c58e8405}, !- Handle
  Std Wood 6inch,                         !- Name
  MediumSmooth,                           !- Roughness
  0.15,                                   !- Thickness {m}
  0.12,                                   !- Conductivity {W/m-K}
  540,                                    !- Density {kg/m3}
  1210,                                   !- Specific Heat {J/kg-K}
  0.9,                                    !- Thermal Absorptance
  0.7,                                    !- Solar Absorptance
  0.7;                                    !- Visible Absorptance

OS:Material,
  {9d84110d-9c88-42cb-b54a-36cc888ca5a1}, !- Handle
  Wood Siding,                            !- Name
  MediumSmooth,                           !- Roughness
  0.01,                                   !- Thickness {m}
  0.11,                                   !- Conductivity {W/m-K}
  544.62,                                 !- Density {kg/m3}
  1210,                                   !- Specific Heat {J/kg-K}
  0.9,                                    !- Thermal Absorptance
  0.78,                                   !- Solar Absorptance
  0.78;                                   !- Visible Absorptance

OS:Material,
  {b1746798-ce95-4cfb-84a2-80452e31c585}, !- Handle
  Metal Siding,                           !- Name
  Smooth,                                 !- Roughness
  0.0015,                                 !- Thickness {m}
  44.96,                                  !- Conductivity {W/m-K}
  7688.86,                                !- Density {kg/m3}
  410,                                    !- Specific Heat {J/kg-K}
  0.9,                                    !- Thermal Absorptance
  0.2,                                    !- Solar Absorptance
  0.2;                                    !- Visible Absorptance

OS:Material,
  {09f2817b-ac1a-4c06-89aa-f0be340d27d7}, !- Handle
  Metal Roofing,                          !- Name
  MediumSmooth,                           !- Roughness
  0.0015,                                 !- Thickness {m}
  45.006,                                 !- Conductivity {W/m-K}
  7680,                                   !- Density {kg/m3}
  418.4,                                  !- Specific Heat {J/kg-K}
  0.9,                                    !- Thermal Absorptance
  0.7,                                    !- Solar Absorptance
  0.3;                                    !- Visible Absorptance

OS:Material:NoMass,
  {bb67440e-4834-43b8-8d02-24339ac60948}, !- Handle
  MAT-AIR-WALL,                           !- Name
  Rough,                                  !- Roughness
  0.2079491,                              !- Thermal Resistance {m2-K/W}
  0.9,                                    !- Thermal Absorptance
  0.7;                                    !- Solar Absorptance

OS:SpaceInfiltration:DesignFlowRate,
  {c9d4c56d-3b1d-46d6-8300-28150192e7fd}, !- Handle
  TopFloor_Plenum_Infiltration,           !- Name
  {e2e3bcd1-ec87-4392-a58d-4c757845171d}, !- Space or SpaceType Name
  {ea600f27-868b-4955-b14c-a3c967e92241}, !- Schedule Name
  Flow/ExteriorArea,                      !- Design Flow Rate Calculation Method
  ,                                       !- Design Flow Rate {m3/s}
  ,                                       !- Flow per Space Floor Area {m3/s-m2}
  0.000302,                               !- Flow per Exterior Surface Area {m3/s-m2}
  ,                                       !- Air Changes per Hour {1/hr}
  1,                                      !- Constant Term Coefficient
  0,                                      !- Temperature Term Coefficient
  0,                                      !- Velocity Term Coefficient
  0;                                      !- Velocity Squared Term Coefficient

OS:ThermalZone,
  {9b27fec7-983e-446a-bd00-19bdf425fb71}, !- Handle
  TopFloor_Plenum Thermal Zone,           !- Name
  1,                                      !- Multiplier
  ,                                       !- Ceiling Height {m}
  ,                                       !- Volume {m3}
  ,                                       !- Floor Area {m2}
  ,                                       !- Zone Inside Convection Algorithm
  ,                                       !- Zone Outside Convection Algorithm
  ,                                       !- Zone Conditioning Equipment List Name
  {52ee0782-d99d-4a65-859b-0032d63eee36}, !- Zone Air Inlet Port List
  {eff0ee71-0579-4686-bd5e-3bfe96710a06}, !- Zone Air Exhaust Port List
  {ef2dd050-642b-4403-85f7-fd960f72c824}, !- Zone Air Node Name
  {e099f1ee-f45e-4fcb-982c-d0fc145b5895}, !- Zone Return Air Port List
  ,                                       !- Primary Daylighting Control Name
  ,                                       !- Fraction of Zone Controlled by Primary Daylighting Control
  ,                                       !- Secondary Daylighting Control Name
  ,                                       !- Fraction of Zone Controlled by Secondary Daylighting Control
  ,                                       !- Illuminance Map Name
  {3b5f934f-927f-4e5b-aa3e-da525340ba44}, !- Group Rendering Name
  ,                                       !- Thermostat Name
  No;                                     !- Use Ideal Air Loads

OS:Node,
  {6ac3cdef-e847-4958-8c8e-292ab00ee24d}, !- Handle
  {5abfe249-e408-4c9b-a64e-691d499607b7}, !- Name
  {ef2dd050-642b-4403-85f7-fd960f72c824}, !- Inlet Port
  ;                                       !- Outlet Port

OS:Connection,
  {ef2dd050-642b-4403-85f7-fd960f72c824}, !- Handle
  {69d8b855-4a8e-46f4-8f71-52d6e72e0e56}, !- Name
  {9b27fec7-983e-446a-bd00-19bdf425fb71}, !- Source Object
  11,                                     !- Outlet Port
  {6ac3cdef-e847-4958-8c8e-292ab00ee24d}, !- Target Object
  2;                                      !- Inlet Port

OS:PortList,
  {52ee0782-d99d-4a65-859b-0032d63eee36}, !- Handle
  {2b40b7ca-87f8-470a-b894-a71bcf7ede64}, !- Name
  {9b27fec7-983e-446a-bd00-19bdf425fb71}; !- HVAC Component

OS:PortList,
  {eff0ee71-0579-4686-bd5e-3bfe96710a06}, !- Handle
  {736c502e-a2ff-44ce-a2f7-a57d42fe0c14}, !- Name
  {9b27fec7-983e-446a-bd00-19bdf425fb71}; !- HVAC Component

OS:PortList,
  {e099f1ee-f45e-4fcb-982c-d0fc145b5895}, !- Handle
  {b6c91973-1b15-41e7-b105-e96067848b13}, !- Name
  {9b27fec7-983e-446a-bd00-19bdf425fb71}; !- HVAC Component

OS:Sizing:Zone,
  {d590d333-6820-4834-b90a-e9669a4575d8}, !- Handle
  {9b27fec7-983e-446a-bd00-19bdf425fb71}, !- Zone or ZoneList Name
  SupplyAirTemperature,                   !- Zone Cooling Design Supply Air Temperature Input Method