
OS:Version,
  {c2d3bd3d-8d0b-4af7-bd53-c467cadf2dac}, !- Handle
  3.0.0;                                  !- Version Identifier

OS:Site,
  {4847e6d9-dab3-4fbd-8fd3-897080a72806}, !- Handle
  USA IL-CHICAGO-OHARE,                   !- Name
  41.77,                                  !- Latitude {deg}
  -87.75,                                 !- Longitude {deg}
  -6,                                     !- Time Zone {hr}
  190,                                    !- Elevation {m}
  City;                                   !- Terrain

OS:SimulationControl,
  {5e43a1cc-e13f-4e45-b7f5-b6058623364d}, !- Handle
  Yes,                                    !- Do Zone Sizing Calculation
  Yes,                                    !- Do System Sizing Calculation
  Yes,                                    !- Do Plant Sizing Calculation
  Yes,                                    !- Run Simulation for Sizing Periods
  No,                                     !- Run Simulation for Weather File Run Periods
  0.04,                                   !- Loads Convergence Tolerance Value {W}
  0.2,                                    !- Temperature Convergence Tolerance Value {deltaC}
  FullInteriorAndExterior,                !- Solar Distribution
  25,                                     !- Maximum Number of Warmup Days
  6;                                      !- Minimum Number of Warmup Days

OS:Building,
  {9494e57d-15e7-4b1f-b2e4-0c428609670e}, !- Handle
  Ref Bldg Full Service Restaurant New2004_v1.3_5.0, !- Name
  ,                                       !- Building Sector Type
  0,                                      !- North Axis {deg}
  ,                                       !- Nominal Floor to Floor Height {m}
  ,                                       !- Space Type Name
  ,                                       !- Default Construction Set Name
  ;                                       !- Default Schedule Set Name

OS:RunPeriod,
  {99746d15-e375-41a6-8675-dcc1a2e2ee95}, !- Handle
  Run Period 1,                           !- Name
  1,                                      !- Begin Month
  1,                                      !- Begin Day of Month
  12,                                     !- End Month
  31,                                     !- End Day of Month
  No,                                     !- Use Weather File Holidays and Special Days
  No,                                     !- Use Weather File Daylight Saving Period
  No,                                     !- Apply Weekend Holiday Rule
  Yes,                                    !- Use Weather File Rain Indicators
  Yes,                                    !- Use Weather File Snow Indicators
  ;                                       !- Number of Times Runperiod to be Repeated

OS:YearDescription,
  {ee7c2f52-85a8-48ff-917c-ef104976eefa}, !- Handle
  ,                                       !- Calendar Year
  Sunday;                                 !- Day of Week for Start Day

OS:RunPeriodControl:DaylightSavingTime,
  {4f33ed97-6a82-4ffe-8f55-8cba56b6497d}, !- Handle
  2nd Sunday in March,                    !- Start Date
  1st Sunday in November;                 !- End Date

OS:ScheduleTypeLimits,
  {bb6ba53d-8166-401d-b777-1710664ebf83}, !- Handle
  {b70d1e03-3956-42fc-8ad4-1f8ea84d15ac}; !- Name

OS:ScheduleTypeLimits,
  {118dcde1-df5b-433f-ace3-3ffc6522ad41}, !- Handle
  Fraction,                               !- Name
  0,                                      !- Lower Limit Value
  1,                                      !- Upper Limit Value
  CONTINUOUS;                             !- Numeric Type

OS:ScheduleTypeLimits,
  {42e7aef4-ef10-4318-aa21-da2a178700b5}, !- Handle
  Temperature,                            !- Name
  -60,                                    !- Lower Limit Value
  200,                                    !- Upper Limit Value
  CONTINUOUS,                             !- Numeric Type
  Temperature;                            !- Unit Type

OS:ScheduleTypeLimits,
  {286f2c94-b3e4-4ff3-a153-8e6cc755de6f}, !- Handle
  On/Off,                                 !- Name
  0,                                      !- Lower Limit Value
  1,                                      !- Upper Limit Value
  DISCRETE,                               !- Numeric Type
  Availability;                           !- Unit Type

OS:ScheduleTypeLimits,
  {28dc0b16-28e5-4418-a3b0-db42999383bc}, !- Handle
  Control Type,                           !- Name
  0,                                      !- Lower Limit Value
  4,                                      !- Upper Limit Value
  DISCRETE,                               !- Numeric Type
  ControlMode;                            !- Unit Type

OS:ScheduleTypeLimits,
  {352eaeed-6e34-4dc3-94e9-f74b077f05b6}, !- Handle
  Humidity,                               !- Name
  10,                                     !- Lower Limit Value
  90,                                     !- Upper Limit Value
  CONTINUOUS;                             !- Numeric Type

OS:ScheduleTypeLimits,
  {ea5afa79-cb23-47aa-819d-d0084be831b3}, !- Handle
  {3ef1c7d9-5219-4519-9fd2-9df34128ca96}; !- Name

OS:Schedule:Compact,
  {269eaa38-6755-4cc2-bc7b-29ad9d95e76f}, !- Handle
  ALWAYS_ON,                              !- Name
  {286f2c94-b3e4-4ff3-a153-8e6cc755de6f}, !- Schedule Type Limits Name
  Through: 12/31,                         !- Field 1
  For: AllDays,                           !- Field 2
  Until: 24:00,                           !- Field 3
  1;                                      !- Field 4

OS:HeatBalanceAlgorithm,
  {ceb55fbb-b167-4352-ab2f-e07cb3cfc227}, !- Handle
  ConductionTransferFunction,             !- Algorithm
  200;                                    !- Surface Temperature Upper Limit {C}

OS:Sizing:Parameters,
  {dfb0756f-1baf-47e3-985b-85b367a0282c}, !- Handle
  1.2,                                    !- Heating Sizing Factor
  1.2,                                    !- Cooling Sizing Factor
  4;                                      !- Timesteps in Averaging Window

OS:ConvergenceLimits,
  {d0a1943a-2fd9-45f9-9c9d-08746d162a69}, !- Handle
  2,                                      !- Minimum System Timestep {minutes}
  25;                                     !- Maximum HVAC Iterations

OS:ShadowCalculation,
  {0c1467c4-0a88-4108-a3bd-b8d7740b5e29}, !- Handle
  PolygonClipping,                        !- Shading Calculation Method
  Periodic,                               !- Shading Calculation Update Frequency Method
  7,                                      !- Shading Calculation Update Frequency
  15000,                                  !- Maximum Figures in Shadow Overlap Calculations
  ,                                       !- Polygon Clipping Algorithm
  512,                                    !- Pixel Counting Resolution
  ,                                       !- Sky Diffuse Modeling Algorithm
  No,                                     !- Output External Shading Calculation Results
  No,                                     !- Disable Self-Shading Within Shading Zone Groups
  No;                                     !- Disable Self-Shading From Shading Zone Groups to Other Zones

OS:Timestep,
  {33efe390-0869-43db-aa70-523a730d3ab4}, !- Handle
  4;                                      !- Number of Timesteps per Hour

OS:SizingPeriod:DesignDay,
  {6f04081f-3fd5-4137-8beb-1979b371c0aa}, !- Handle
  CHICAGO Ann Htg 99.6% Condns DB,        !- Name
  -20.6,                                  !- Maximum Dry-Bulb Temperature {C}
  0,                                      !- Daily Dry-Bulb Temperature Range {deltaC}
  -20.6,                                  !- Humidity Indicating Conditions at Maximum Dry-Bulb
  99063,                                  !- Barometric Pressure {Pa}
  4.9,                                    !- Wind Speed {m/s}
  270,                                    !- Wind Direction {deg}
  0,                                      !- Sky Clearness
  0,                                      !- Rain Indicator
  0,                                      !- Snow Indicator
  21,                                     !- Day of Month
  1,                                      !- Month
  WinterDesignDay,                        !- Day Type
  0,                                      !- Daylight Saving Time Indicator
  Wetbulb,                                !- Humidity Indicating Type
  ,                                       !- Humidity Indicating Day Schedule Name
  ,                                       !- Dry-Bulb Temperature Range Modifier Type
  ,                                       !- Dry-Bulb Temperature Range Modifier Schedule Name
  ASHRAEClearSky;                         !- Solar Model Indicator

OS:SizingPeriod:DesignDay,
  {f8d6ed24-a9e2-442e-af9c-a3bdd49592b3}, !- Handle
  CHICAGO Ann Clg .4% Condns WB=>MDB,     !- Name
  31.2,                                   !- Maximum Dry-Bulb Temperature {C}
  10.7,                                   !- Daily Dry-Bulb Temperature Range {deltaC}
  25.5,                                   !- Humidity Indicating Conditions at Maximum Dry-Bulb
  99063,                                  !- Barometric Pressure {Pa}
  5.3,                                    !- Wind Speed {m/s}
  230,                                    !- Wind Direction {deg}
  1,                                      !- Sky Clearness
  0,                                      !- Rain Indicator
  0,                                      !- Snow Indicator
  21,                                     !- Day of Month
  7,                                      !- Month
  SummerDesignDay,                        !- Day Type
  0,                                      !- Daylight Saving Time Indicator
  Wetbulb,                                !- Humidity Indicating Type
  ,                                       !- Humidity Indicating Day Schedule Name
  ,                                       !- Dry-Bulb Temperature Range Modifier Type
  ,                                       !- Dry-Bulb Temperature Range Modifier Schedule Name
  ASHRAEClearSky;                         !- Solar Model Indicator

OS:Construction,
  {e91e97bc-e93f-4106-a257-5127436751ea}, !- Handle
  Steel Frame Non-res Ext Wall,           !- Name
  {8a7f5a6f-1d97-4940-ab7c-63ade9ee68f9}, !- Surface Rendering Name
  {1e5b137e-7b76-4eea-9297-0fbd3c5012fe}, !- Layer 1
  {9973a5c0-cff3-4e7c-8ff4-6a2d4ac2472c}, !- Layer 2
  {487548d8-5915-4e1b-867d-99b9e6f81ee4}; !- Layer 3

OS:Material,
  {1e5b137e-7b76-4eea-9297-0fbd3c5012fe}, !- Handle
  Wood Siding,                            !- Name
  MediumSmooth,                           !- Roughness
  0.01,                                   !- Thickness {m}
  0.11,                                   !- Conductivity {W/m-K}
  544.62,                                 !- Density {kg/m3}
  1210,                                   !- Specific Heat {J/kg-K}
  0.9,                                    !- Thermal Absorptance
  0.78,                                   !- Solar Absorptance
  0.78;                                   !- Visible Absorptance

OS:Material,
  {9973a5c0-cff3-4e7c-8ff4-6a2d4ac2472c}, !- Handle
  Steel Frame NonRes Wall Insulation,     !- Name
  MediumRough,                            !- Roughness
  0.0870564552646045,                     !- Thickness {m}
  0.049,                                  !- Conductivity {W/m-K}
  265,                                    !- Density {kg/m3}
  836.8,                                  !- Specific Heat {J/kg-K}
  0.9,                                    !- Thermal Absorptance
  0.7,                                    !- Solar Absorptance
  0.7;                                    !- Visible Absorptance

OS:Material,
  {487548d8-5915-4e1b-867d-99b9e6f81ee4}, !- Handle
  1/2IN Gypsum,                           !- Name
  Smooth,                                 !- Roughness
  0.0127,                                 !- Thickness {m}
  0.16,                                   !- Conductivity {W/m-K}
  784.9,                                  !- Density {kg/m3}
  830,                                    !- Specific Heat {J/kg-K}
  0.9,                                    !- Thermal Absorptance
  0.92,                                   !- Solar Absorptance
  0.92;                                   !- Visible Absorptance

OS:Construction,
  {666fcc5f-fe89-4960-b240-0605c4daa763}, !- Handle
  Attic Non-res Floor,                    !- Name
  {f2016259-ecba-4927-a7aa-32437c51ae5f}, !- Surface Rendering Name
  {487548d8-5915-4e1b-867d-99b9e6f81ee4}, !- Layer 1
  {6ce90584-51fa-4993-937f-b2ac955cef84}, !- Layer 2
  {487548d8-5915-4e1b-867d-99b9e6f81ee4}; !- Layer 3

OS:Material,
  {6ce90584-51fa-4993-937f-b2ac955cef84}, !- Handle
  AtticFloor NonRes Insulation,           !- Name
  MediumRough,                            !- Roughness
  0.236804989096202,                      !- Thickness {m}
  0.049,                                  !- Conductivity {W/m-K}
  265,                                    !- Density {kg/m3}
  836.8,                                  !- Specific Heat {J/kg-K}
  0.9,                                    !- Thermal Absorptance
  0.7,                                    !- Solar Absorptance
  0.7;                                    !- Visible Absorptance

OS:Construction,
  {44208e34-9226-46f8-bec5-5c17d8c7c2ed}, !- Handle
  Attic Non-res Roof,                     !- Name
  {89d8fa65-ce91-4f8f-9738-00866685151a}, !- Surface Rendering Name
  {01b6f010-3142-4a9e-a8ee-88a87ba88789}, !- Layer 1
  {22f32a6d-fff9-49ed-9b44-f514345bcc77}; !- Layer 2

OS:Material,
  {01b6f010-3142-4a9e-a8ee-88a87ba88789}, !- Handle
  Roof Membrane,                          !- Name
  VeryRough,                              !- Roughness
  0.0095,                                 !- Thickness {m}
  0.16,                                   !- Conductivity {W/m-K}
  1121.29,                                !- Density {kg/m3}
  1460,                                   !- Specific Heat {J/kg-K}
  0.9,                                    !- Thermal Absorptance
  0.7,                                    !- Solar Absorptance
  0.7;                                    !- Visible Absorptance

OS:Material,
  {22f32a6d-fff9-49ed-9b44-f514345bcc77}, !- Handle
  Metal Decking,                          !- Name
  MediumSmooth,                           !- Roughness
  0.0015,                                 !- Thickness {m}
  45.006,                                 !- Conductivity {W/m-K}
  7680,                                   !- Density {kg/m3}
  418.4,                                  !- Specific Heat {J/kg-K}
  0.9,                                    !- Thermal Absorptance
  0.7,                                    !- Solar Absorptance
  0.3;                                    !- Visible Absorptance

OS:Construction,
  {c8bbf7c7-8e10-4ac2-b818-48ae47859781}, !- Handle
  ext-slab,                               !- Name
  {24576d84-63f3-4559-9bf4-37dc774e7a1c}, !- Surface Rendering Name
  {b5fd2366-12f0-45c3-b00d-2294eafa999c}; !- Layer 1

OS:Material,
  {b5fd2366-12f0-45c3-b00d-2294eafa999c}, !- Handle
  HW CONCRETE,                            !- Name
  Rough,                                  !- Roughness
  0.1016,                                 !- Thickness {m}
  1.311,                                  !- Conductivity {W/m-K}
  2240,                                   !- Density {kg/m3}
  836.8,                                  !- Specific Heat {J/kg-K}
  0.9,                                    !- Thermal Absorptance
  0.7,                                    !- Solar Absorptance
  0.7;                                    !- Visible Absorptance

OS:Construction,
  {37262f65-5e37-4af3-bd07-21493ec7b206}, !- Handle
  int-walls,                              !- Name
  {76a60b89-738a-4d10-bdb2-30b88a2830cb}, !- Surface Rendering Name
  {487548d8-5915-4e1b-867d-99b9e6f81ee4}, !- Layer 1
  {487548d8-5915-4e1b-867d-99b9e6f81ee4}; !- Layer 2

OS:Construction,
  {ef25a5c6-f524-4e58-b299-054bfcd94902}, !- Handle
  Window Non-res Fixed,                   !- Name
  {92cd312b-4927-4535-a2ea-55c3ad16c788}, !- Surface Rendering Name
  {4f576c92-78b7-4f2b-ae95-3316b0dbb546}; !- Layer 1

OS:WindowMaterial:SimpleGlazingSystem,
  {4f576c92-78b7-4f2b-ae95-3316b0dbb546}, !- Handle
  NonRes Fixed Assembly Window,           !- Name
  3.23646,                                !- U-Factor {W/m2-K}
  0.39;                                   !- Solar Heat Gain Coefficient

OS:Construction,
  {df89dcf5-135d-48ce-8164-54cffe4488e8}, !- Handle
  InteriorFurnishings,                    !- Name
  {a338a6f5-ce7d-4eb0-8641-32a9eb3be047}, !- Surface Rendering Name
  {21eab6bd-f883-4632-b1c6-bda34eef9c0b}; !- Layer 1

OS:Material,
  {21eab6bd-f883-4632-b1c6-bda34eef9c0b}, !- Handle
  Std Wood 6inch,                         !- Name
  MediumSmooth,                           !- Roughness
  0.15,                                   !- Thickness {m}
  0.12,                                   !- Conductivity {W/m-K}
  540,                                    !- Density {kg/m3}
  1210,                                   !- Specific Heat {J/kg-K}
  0.9,                                    !- Thermal Absorptance
  0.7,                                    !- Solar Absorptance
  0.7;                                    !- Visible Absorptance

OS:Material,
  {2a5370a7-11e4-461a-8b5e-108c0ecf46cd}, !- Handle
  1IN Stucco,                             !- Name
  Smooth,                                 !- Roughness
  0.0253,                                 !- Thickness {m}
  0.6918,                                 !- Conductivity {W/m-K}
  1858,                                   !- Density {kg/m3}
  837,                                    !- Specific Heat {J/kg-K}
  0.9,                                    !- Thermal Absorptance
  0.92,                                   !- Solar Absorptance
  0.92;                                   !- Visible Absorptance

OS:Material,
  {7465e31f-2260-46d0-b1a7-158129566120}, !- Handle
  8IN CONCRETE HW,                        !- Name
  Rough,                                  !- Roughness
  0.2032,                                 !- Thickness {m}
  1.311,                                  !- Conductivity {W/m-K}
  2240,                                   !- Density {kg/m3}
  836.8,                                  !- Specific Heat {J/kg-K}
  0.9,                                    !- Thermal Absorptance
  0.7,                                    !- Solar Absorptance
  0.7;                                    !- Visible Absorptance

OS:Material,
  {045fee1e-06d1-4c4b-871f-75490dcfc17d}, !- Handle
  Metal Siding,                           !- Name
  Smooth,                                 !- Roughness
  0.0015,                                 !- Thickness {m}
  44.96,                                  !- Conductivity {W/m-K}
  7688.86,                                !- Density {kg/m3}
  410,                                    !- Specific Heat {J/kg-K}
  0.9,                                    !- Thermal Absorptance
  0.2,                                    !- Solar Absorptance
  0.2;                                    !- Visible Absorptance

OS:Material:NoMass,
  {9f134034-4cf8-43bd-8ffe-9f2d586c5570}, !- Handle
  CP02 CARPET PAD,                        !- Name
  VeryRough,                              !- Roughness
  0.2165,                                 !- Thermal Resistance {m2-K/W}
  0.9,                                    !- Thermal Absorptance
  0.7,                                    !- Solar Absorptance
  0.8;                                    !- Visible Absorptance

OS:Material,
  {b4c360c9-6ca5-47fb-957e-a54b6c07356b}, !- Handle
  Metal Roofing,                          !- Name
  MediumSmooth,                           !- Roughness
  0.0015,                                 !- Thickness {m}
  45.006,                                 !- Conductivity {W/m-K}
  7680,                                   !- Density {kg/m3}
  418.4,                                  !- Specific Heat {J/kg-K}
  0.9,                                    !- Thermal Absorptance
  0.7,                                    !- Solar Absorptance
  0.3;                                    !- Visible Absorptance

OS:Material,
  {93f5334a-dbec-442a-9167-2b0850207929}, !- Handle
  MAT-CC05 4 HW CONCRETE,                 !- Name
  Rough,                                  !- Roughness
  0.1016,                                 !- Thickness {m}
  1.311,                                  !- Conductivity {W/m-K}
  2240,                                   !- Density {kg/m3}
  836.8,                                  !- Specific Heat {J/kg-K}
  0.9,                                    !- Thermal Absorptance
  0.7,                                    !- Solar Absorptance
  0.7;                                    !- Visible Absorptance

OS:Material,
  {77cd60ae-1e2c-47d8-b971-bc5647d5866f}, !- Handle
  Std AC02,                               !- Name
  MediumSmooth,                           !- Roughness
  0.0127,                                 !- Thickness {m}
  0.057,                                  !- Conductivity {W/m-K}
  288,                                    !- Density {kg/m3}
  1339,                                   !- Specific Heat {J/kg-K}
  0.9,                                    !- Thermal Absorptance
  0.7,                                    !- Solar Absorptance
  0.2;                                    !- Visible Absorptance

OS:Material:NoMass,
  {33a49442-e0f6-4287-bc26-e625b409b6c2}, !- Handle
  MAT-AIR-WALL,                           !- Name
  Rough,                                  !- Roughness
  0.2079491,                              !- Thermal Resistance {m2-K/W}
  0.9,                                    !- Thermal Absorptance
  0.7;                                    !- Solar Absorptance

OS:ThermalZone,
  {fb01bed7-9316-43e9-9f2a-e228c01a2cc1}, !- Handle
  Dining Thermal Zone,                    !- Name
  1,                                      !- Multiplier
  ,                                       !- Ceiling Height {m}
  ,                                       !- Volume {m3}
  ,                                       !- Floor Area {m2}
  ,                                       !- Zone Inside Convection Algorithm
  ,                                       !- Zone Outside Convection Algorithm
  ,                                       !- Zone Conditioning Equipment List Name
  {1ebad440-500b-4eb8-8ef9-fb1c3c846591}, !- Zone Air Inlet Port List
  {a3b4c281-4142-465d-8386-334b1d56dbaf}, !- Zone Air Exhaust Port List
  {0d155199-23c8-481c-8076-2e60e108d6fc}, !- Zone Air Node Name
  {c75e541f-00dd-4fa6-8331-da27a25f5813}, !- Zone Return Air Port List
  ,                                       !- Primary Daylighting Control Name
  ,                                       !- Fraction of Zone Controlled by Primary Daylighting Control
  ,                                       !- Secondary Daylighting Control Name
  ,                                       !- Fraction of Zone Controlled by Secondary Daylighting Control
  ,                                       !- Illuminance Map Name
  {1848f736-3ef4-42bc-8e23-b53cf9ac2f9b}, !- Group Rendering Name
  {ea54e1fd-24aa-4907-b5f9-d3a73be480e5}, !- Thermostat Name
  No;                                     !- Use Ideal Air Loads

OS:Node,
  {e90e14a7-b513-4d3c-92bb-07f1013725c2}, !- Handle
  {bbadf066-b9c5-429c-b046-8f091902d363}, !- Name
  {0d155199-23c8-481c-8076-2e60e108d6fc}, !- Inlet Port
  ;                                       !- Outlet Port

OS:Connection,
  {0d155199-23c8-481c-8076-2e60e108d6fc}, !- Handle
  {b9cd6509-4e82-497e-894a-503e71e90d1d}, !- Name
  {fb01bed7-9316-43e9-9f2a-e228c01a2cc1}, !- Source Object
  11,                                     !- Outlet Port
  {e90e14a7-b513-4d3c-92bb-07f1013725c2}, !- Target Object
  2;                                      !- Inlet Port

OS:PortList,
  {1ebad440-500b-4eb8-8ef9-fb1c3c846591}, !- Handle
  {26894762-2858-4fb4-9eda-00a6f93535b2}, !- Name
  {fb01bed7-9316-43e9-9f2a-e228c01a2cc1}; !- HVAC Component

OS:PortList,
  {a3b4c281-4142-465d-8386-334b1d56dbaf}, !- Handle
  {970dfe91-9b9a-44b8-95c4-6f7d67ad3c97}, !- Name
  {fb01bed7-9316-43e9-9f2a-e228c01a2cc1}; !- HVAC Component

OS:PortList,
  {c75e541f-00dd-4fa6-8331-da27a25f5813}, !- Handle
  {745bf2f9-35c7-4af7-a1a2-03f00350947f}, !- Name
  {fb01bed7-9316-43e9-9f2a-e228c01a2cc1}; !- HVAC Component

OS:Sizing:Zone,
  {41ac1b42-fc6b-4adb-b43f-c4a14860538b}, !- Handle
  {fb01bed7-9316-43e9-9f2a-e228c01a2cc1}, !- Zone or ZoneList Name
  SupplyAirTemperature,                   !- Zone Cooling Design Supply Air Temperature Input Method
  14,                                     !- Zone Cooling Design Supply Air Temperature {C}
  11.11,                                  !- Zone Cooling Design Supply Air Temperature Difference {deltaC}
  SupplyAirTemperature,                   !- Zone Heating Design Supply Air Temperature Input Method
  40,                                     !- Zone Heating Design Supply Air Temperature {C}
  11.11,                                  !- Zone Heating Design Supply Air Temperature Difference {deltaC}
  0.0085,                                 !- Zone Cooling Design Supply Air Humidity Ratio {kg-H2O/kg-air}
  0.008,                                  !- Zone Heating Design Supply Air Humidity Ratio {kg-H2O/kg-air}
  ,                                       !- Zone Heating Sizing Factor
  ,                                       !- Zone Cooling Sizing Factor
  DesignDay,                              !- Cooling Design Air Flow Method
  ,                                       !- Cooling Design Air Flow Rate {m3/s}
  ,                                       !- Cooling Minimum Air Flow per Zone Floor Area {m3/s-m2}
  ,                                       !- Cooling Minimum Air Flow {m3/s}
  ,                                       !- Cooling Minimum Air Flow Fraction
  DesignDay,                              !- Heating Design Air Flow Method
  ,                                       !- Heating Design Air Flow Rate {m3/s}
  ,                                       !- Heating Maximum Air Flow per Zone Floor Area {m3/s-m2}
  ,                                       !- Heating Maximum Air Flow {m3/s}
  ,                                       !- Heating Maximum Air Flow Fraction
  No,                                     !- Account for Dedicated Outdoor Air System
  NeutralSupplyAir,                       !- Dedicated Outdoor Air System Control Strategy
  autosize,                               !- Dedicated Outdoor Air Low Setpoint Temperature for Design {C}
  autosize;                               !- Dedicated Outdoor Air High Setpoint Temperature for Design {C}

OS:ZoneHVAC:EquipmentList,
  {6257652f-01ff-4e56-b1d7-5d58c27e782e}, !- Handle
  {8398bf40-af33-43af-9edf-8959decd2663}, !- Name
  {fb01bed7-9316-43e9-9f2a-e228c01a2cc1}; !- Thermal Zone

OS:Space,
  {4fa38de4-f2ea-404c-8d59-0f32dd98f0e0}, !- Handle
  Dining,                                 !- Name
  ,                                       !- Space Type Name
  ,                                       !- Default Construction Set Name
  ,                                       !- Default Schedule Set Name
  0,                                      !- Direction of Relative North {deg}
  0,                                      !- X Origin {m}
  0,                                      !- Y Origin {m}
  0,                                      !- Z Origin {m}
  ,                                       !- Building Story Name
  {fb01bed7-9316-43e9-9f2a-e228c01a2cc1}, !- Thermal Zone Name
  Yes,                                    !- Part of Total Floor Area
  {2bd16745-f5a6-4a65-b22a-3a8beb929050}; !- Design Specification Outdoor Air Object Name

OS:ThermostatSetpoint:DualSetpoint,
  {ea54e1fd-24aa-4907-b5f9-d3a73be480e5}, !- Handle
  Dining DualSPSched,                     !- Name
  {4263393a-4934-4ef8-8f14-4511a5d1db8e}, !- Heating Setpoint Temperature Schedule Name
  {c8948b7e-652c-4428-9c7f-f19f93f959dc}; !- Cooling Setpoint Temperature Schedule Name

OS:Schedule:Compact,
  {4263393a-4934-4ef8-8f14-4511a5d1db8e}, !- Handle
  HTGSETP_SCH,                            !- Name
  {42e7aef4-ef10-4318-aa21-da2a178700b5}, !- Schedule Type Limits Name
  Through: 12/31,                         !- Field 1
  For: SummerDesignDay,                   !- Field 2
  Until: 24:00,                           !- Field 3
  15.6,                                   !- Field 4
  For: WinterDesignDay,                   !- Field 5
  Until: 24:00,                           !- Field 6
  21,                                     !- Field 7
  For: AllOtherDays,                      !- Field 8
  Until: 01:00,                           !- Field 9
  21,                                     !- Field 10
  Until: 05:00,                           !- Field 11
  15.6,                                   !- Field 12
  Until: 24:00,                           !- Field 13
  21;                                     !- Field 14

OS:Schedule:Compact,
  {c8948b7e-652c-4428-9c7f-f19f93f959dc}, !- Handle
  CLGSETP_SCH,                            !- Name
  {42e7aef4-ef10-4318-aa21-da2a178700b5}, !- Schedule Type Limits Name
  Through: 12/31,                         !- Field 1
  For: WinterDesignDay,                   !- Field 2
  Until: 24:00,                           !- Field 3
  30,                                     !- Field 4
  For: AllOtherDays,                      !- Field 5
  Until: 01:00,                           !- Field 6
  24,                                     !- Field 7
  Until: 05:00,                           !- Field 8
  30,                                     !- Field 9
  Until: 24:00,                           !- Field 10
  24;                                     !- Field 11

OS:ThermalZone,
  {ee6d1bea-80be-4d6e-b2b5-b395ac3fc316}, !- Handle