
OS:Version,
  {41d19c44-dddb-403b-b097-7c1a91b20cf3}, !- Handle
  3.3.0;                                  !- Version Identifier

OS:Site,
  {f779ff25-907c-4ecc-9e6b-7acdca7ec317}, !- Handle
  USA_IL_Chicago Ohare Intl Ap,           !- Name
  41.98,                                  !- Latitude {deg}
  -87.92,                                 !- Longitude {deg}
  -6,                                     !- Time Zone {hr}
  201,                                    !- Elevation {m}
  City;                                   !- Terrain

OS:SimulationControl,
  {acfd59d4-4acf-4cf2-a57f-ac6b86f1ccbf}, !- Handle
  Yes,                                    !- Do Zone Sizing Calculation
  Yes,                                    !- Do System Sizing Calculation
  Yes,                                    !- Do Plant Sizing Calculation
  Yes,                                    !- Run Simulation for Sizing Periods
  Yes,                                    !- Run Simulation for Weather File Run Periods
  0.04,                                   !- Loads Convergence Tolerance Value {W}
  0.2,                                    !- Temperature Convergence Tolerance Value {deltaC}
  FullInteriorAndExterior,                !- Solar Distribution
  25,                                     !- Maximum Number of Warmup Days
  6,                                      !- Minimum Number of Warmup Days
  No,                                     !- Do HVAC Sizing Simulation for Sizing Periods
  1;                                      !- Maximum Number of HVAC Sizing Simulation Passes

OS:SizingPeriod:DesignDay,
  {d260084a-b529-49b6-8697-1d3103ebbb01}, !- Handle
  CHICAGO Ann Htg 99.6% Condns DB,        !- Name
  -20.6,                                  !- Maximum Dry-Bulb Temperature {C}
  0,                                      !- Daily Dry-Bulb Temperature Range {deltaC}
  99063,                                  !- Barometric Pressure {Pa}
  4.9,                                    !- Wind Speed {m/s}
  270,                                    !- Wind Direction {deg}
  0,                                      !- Sky Clearness
  No,                                     !- Rain Indicator
  No,                                     !- Snow Indicator
  21,                                     !- Day of Month
  1,                                      !- Month
  WinterDesignDay,                        !- Day Type
  No,                                     !- Daylight Saving Time Indicator
  Wetbulb,                                !- Humidity Condition Type
  ,                                       !- Humidity Condition Day Schedule Name
  -20.6,                                  !- Wetbulb or DewPoint at Maximum Dry-Bulb {C}
  ,                                       !- Humidity Ratio at Maximum Dry-Bulb {kgWater/kgDryAir}
  ,                                       !- Enthalpy at Maximum Dry-Bulb {J/kg}
  DefaultMultipliers,                     !- Dry-Bulb Temperature Range Modifier Type
  ,                                       !- Dry-Bulb Temperature Range Modifier Day Schedule Name
  ASHRAEClearSky;                         !- Solar Model Indicator

OS:SizingPeriod:DesignDay,
  {4cccb12c-580d-44c1-895f-ed5a317a9b56}, !- Handle
  CHICAGO Ann Clg .4% Condns WB=>MDB,     !- Name
  31.2,                                   !- Maximum Dry-Bulb Temperature {C}
  10.7,                                   !- Daily Dry-Bulb Temperature Range {deltaC}
  99063,                                  !- Barometric Pressure {Pa}
  5.3,                                    !- Wind Speed {m/s}
  230,                                    !- Wind Direction {deg}
  1,                                      !- Sky Clearness
  No,                                     !- Rain Indicator
  No,                                     !- Snow Indicator
  21,                                     !- Day of Month
  7,                                      !- Month
  SummerDesignDay,                        !- Day Type
  No,                                     !- Daylight Saving Time Indicator
  Wetbulb,                                !- Humidity Condition Type
  ,                                       !- Humidity Condition Day Schedule Name
  25.5,                                   !- Wetbulb or DewPoint at Maximum Dry-Bulb {C}
  ,                                       !- Humidity Ratio at Maximum Dry-Bulb {kgWater/kgDryAir}
  ,                                       !- Enthalpy at Maximum Dry-Bulb {J/kg}
  DefaultMultipliers,                     !- Dry-Bulb Temperature Range Modifier Type
  ,                                       !- Dry-Bulb Temperature Range Modifier Day Schedule Name
  ASHRAEClearSky;                         !- Solar Model Indicator

OS:Surface,
  {c5b87ee3-a42c-442c-86a2-b62aa7a81511}, !- Handle
  Kitchen_ZN_1_FLR_1_Wall_1,              !- Name
  Wall,                                   !- Surface Type
  {6b4639b5-38d0-4fb3-bd2a-3b9e710873ad}, !- Construction Name
  {1ff6ed02-2dbb-4d34-8f59-4bc6462264e5}, !- Space Name
  Surface,                                !- Outside Boundary Condition
  {5bc71e9f-08ab-4954-baa6-ec4fb999ee23}, !- Outside Boundary Condition Object
  NoSun,                                  !- Sun Exposure
  NoWind,                                 !- Wind Exposure
  ,                                       !- View Factor to Ground
  ,                                       !- Number of Vertices
  0, 0, 4,                                !- X,Y,Z Vertex 1 {m}
  0, 0, 0,                                !- X,Y,Z Vertex 2 {m}
  24, 0, 0,                               !- X,Y,Z Vertex 3 {m}
  24, 0, 4;                               !- X,Y,Z Vertex 4 {m}

OS:Construction,
  {6b4639b5-38d0-4fb3-bd2a-3b9e710873ad}, !- Handle
  int-walls,                              !- Name
  {13bb2c94-8a5e-463a-9cc6-2140cb5e6434}, !- Surface Rendering Name
  {5271efac-9fe0-467b-84df-b19e9da6a46f}, !- Layer 1
  {5271efac-9fe0-467b-84df-b19e9da6a46f}; !- Layer 2

OS:Material,
  {5271efac-9fe0-467b-84df-b19e9da6a46f}, !- Handle
  1/2IN Gypsum [.5 in][1.27 cm],          !- Name
  Smooth,                                 !- Roughness
  0.0127,                                 !- Thickness {m}
  0.16,                                   !- Conductivity {W/m-K}
  784.9,                                  !- Density {kg/m3}
  830,                                    !- Specific Heat {J/kg-K}
  0.9,                                    !- Thermal Absorptance
  0.92,                                   !- Solar Absorptance
  0.92;                                   !- Visible Absorptance

OS:ThermalZone,
  {f70fea18-cef0-4b5c-9214-8507f27a980b}, !- Handle
  Kitchen_ZN_1_FLR_1,                     !- Name
  1,                                      !- Multiplier
  3.7984,                                 !- Ceiling Height {m}
  817.7059385344,                         !- Volume {m3}
  ,                                       !- Floor Area {m2}
  ,                                       !- Zone Inside Convection Algorithm
  ,                                       !- Zone Outside Convection Algorithm
  ,                                       !- Zone Conditioning Equipment List Name
  {c09d6631-7bd5-497d-9ce1-83ae6d12793c}, !- Zone Air Inlet Port List
  {f67d5576-b4f3-48f2-8e2d-93135fb40463}, !- Zone Air Exhaust Port List
  {6dda46e4-6c27-434c-975d-5b9945ec48a5}, !- Zone Air Node Name
  {04f6d898-2935-40e2-9d48-c5ab141c15fb}, !- Zone Return Air Port List
  ,                                       !- Primary Daylighting Control Name
  ,                                       !- Fraction of Zone Controlled by Primary Daylighting Control
  ,                                       !- Secondary Daylighting Control Name
  ,                                       !- Fraction of Zone Controlled by Secondary Daylighting Control
  ,                                       !- Illuminance Map Name
  {53cfcbc9-7d3a-4a22-8f04-844b94a1415a}, !- Group Rendering Name
  {5f483b37-a404-4895-9475-de7de1631750}, !- Thermostat Name
  No;                                     !- Use Ideal Air Loads

OS:Node,
  {b6f87272-b32a-4a7a-bca2-b1f6282d00de}, !- Handle
  Node 1,                                 !- Name
  {6dda46e4-6c27-434c-975d-5b9945ec48a5}, !- Inlet Port
  ;                                       !- Outlet Port

OS:Connection,
  {6dda46e4-6c27-434c-975d-5b9945ec48a5}, !- Handle
  {f70fea18-cef0-4b5c-9214-8507f27a980b}, !- Source Object
  11,                                     !- Outlet Port
  {b6f87272-b32a-4a7a-bca2-b1f6282d00de}, !- Target Object
  2;                                      !- Inlet Port

OS:PortList,
  {c09d6631-7bd5-497d-9ce1-83ae6d12793c}, !- Handle
  {f70fea18-cef0-4b5c-9214-8507f27a980b}; !- HVAC Component

OS:PortList,
  {f67d5576-b4f3-48f2-8e2d-93135fb40463}, !- Handle
  {f70fea18-cef0-4b5c-9214-8507f27a980b}; !- HVAC Component

OS:PortList,
  {04f6d898-2935-40e2-9d48-c5ab141c15fb}, !- Handle
  {f70fea18-cef0-4b5c-9214-8507f27a980b}; !- HVAC Component

OS:Sizing:Zone,
  {e6e20e3d-53fa-4993-baac-59e98eec6bb4}, !- Handle
  {f70fea18-cef0-4b5c-9214-8507f27a980b}, !- Zone or ZoneList Name
  SupplyAirTemperature,                   !- Zone Cooling Design Supply Air Temperature Input Method
  12.8,                                   !- Zone Cooling Design Supply Air Temperature {C}
  11.11,                                  !- Zone Cooling Design Supply Air Temperature Difference {deltaC}
  SupplyAirTemperature,                   !- Zone Heating Design Supply Air Temperature Input Method
  50,                                     !- Zone Heating Design Supply Air Temperature {C}
  11.11,                                  !- Zone Heating Design Supply Air Temperature Difference {deltaC}
  0.0085,                                 !- Zone Cooling Design Supply Air Humidity Ratio {kg-H2O/kg-air}
  0.008,                                  !- Zone Heating Design Supply Air Humidity Ratio {kg-H2O/kg-air}
  ,                                       !- Zone Heating Sizing Factor
  ,                                       !- Zone Cooling Sizing Factor
  DesignDay,                              !- Cooling Design Air Flow Method
  0,                                      !- Cooling Design Air Flow Rate {m3/s}
  0.000762,                               !- Cooling Minimum Air Flow per Zone Floor Area {m3/s-m2}
  0,                                      !- Cooling Minimum Air Flow {m3/s}
  0.2,                                    !- Cooling Minimum Air Flow Fraction
  DesignDay,                              !- Heating Design Air Flow Method
  0,                                      !- Heating Design Air Flow Rate {m3/s}
  0.002032,                               !- Heating Maximum Air Flow per Zone Floor Area {m3/s-m2}
  0.1415762,                              !- Heating Maximum Air Flow {m3/s}
  0.3,                                    !- Heating Maximum Air Flow Fraction
  No,                                     !- Account for Dedicated Outdoor Air System
  NeutralSupplyAir,                       !- Dedicated Outdoor Air System Control Strategy
  autosize,                               !- Dedicated Outdoor Air Low Setpoint Temperature for Design {C}
  autosize;                               !- Dedicated Outdoor Air High Setpoint Temperature for Design {C}

OS:ZoneHVAC:EquipmentList,
  {d29b4fd1-a7b3-4376-ac2c-e021d0ce4b72}, !- Handle
  Zone HVAC Equipment List 1,             !- Name
  {f70fea18-cef0-4b5c-9214-8507f27a980b}; !- Thermal Zone

OS:Space,
  {1ff6ed02-2dbb-4d34-8f59-4bc6462264e5}, !- Handle
  Kitchen_ZN_1_FLR_1 Space,               !- Name
  {9a8ca195-4b54-4e52-8ae2-eb362f7d6ed1}, !- Space Type Name
  ,                                       !- Default Construction Set Name
  ,                                       !- Default Schedule Set Name
  0,                                      !- Direction of Relative North {deg}
  117,                                    !- X Origin {m}
  66,                                     !- Y Origin {m}
  0,                                      !- Z Origin {m}
  ,                                       !- Building Story Name
  {f70fea18-cef0-4b5c-9214-8507f27a980b}, !- Thermal Zone Name
  Yes,                                    !- Part of Total Floor Area
  {e87ab759-110d-45d4-9214-3d355fbd0616}; !- Design Specification Outdoor Air Object Name

OS:ThermostatSetpoint:DualSetpoint,
  {5f483b37-a404-4895-9475-de7de1631750}, !- Handle
  Kitchen_ZN_1_FLR_1 DualSPSched,         !- Name
  ,                                       !- Heating Setpoint Temperature Schedule Name
  ,                                       !- Cooling Setpoint Temperature Schedule Name
  0;                                      !- Temperature Difference Between Cutout And Setpoint {deltaC}

OS:Schedule:Year,
  {17cb6389-4619-40a0-b713-10454b9a5d32}, !- Handle
  HTGSETP_SCH_BathCorrMechKitchen,        !- Name
  {ba775cc9-a434-4eb4-ac51-6b4bbd3cbc0d}, !- Schedule Type Limits Name
  12,                                     !- Month 1
  31,                                     !- Day 1
  {7d8d9ea1-7b0a-4e52-a24f-7dda329b346b}; !- Week Schedule Until Date 1

OS:ScheduleTypeLimits,
  {ba775cc9-a434-4eb4-ac51-6b4bbd3cbc0d}, !- Handle
  Temperature,                            !- Name
  -60,                                    !- Lower Limit Value
  200,                                    !- Upper Limit Value
  CONTINUOUS,                             !- Numeric Type
  Dimensionless;                          !- Unit Type

OS:Schedule:Week,
  {7d8d9ea1-7b0a-4e52-a24f-7dda329b346b}, !- Handle
  HTGSETP_SCH_BathCorrMechKitchen_WeekProfile1, !- Name
  ,                                       !- Schedule Rendering Name
  {02e9df34-36ff-4829-9c3e-1bb3b421cb45}, !- Sunday Schedule:Day Name
  {02e9df34-36ff-4829-9c3e-1bb3b421cb45}, !- Monday Schedule:Day Name
  {02e9df34-36ff-4829-9c3e-1bb3b421cb45}, !- Tuesday Schedule:Day Name
  {02e9df34-36ff-4829-9c3e-1bb3b421cb45}, !- Wednesday Schedule:Day Name
  {02e9df34-36ff-4829-9c3e-1bb3b421cb45}, !- Thursday Schedule:Day Name
  {02e9df34-36ff-4829-9c3e-1bb3b421cb45}, !- Friday Schedule:Day Name
  {02e9df34-36ff-4829-9c3e-1bb3b421cb45}, !- Saturday Schedule:Day Name
  {02e9df34-36ff-4829-9c3e-1bb3b421cb45}, !- Holiday Schedule:Day Name
  {02e9df34-36ff-4829-9c3e-1bb3b421cb45}, !- SummerDesignDay Schedule:Day Name
  {e92eb255-68cd-4cca-b525-8510a6519afe}, !- WinterDesignDay Schedule:Day Name
  {02e9df34-36ff-4829-9c3e-1bb3b421cb45}, !- CustomDay1 Schedule:Day Name
  {02e9df34-36ff-4829-9c3e-1bb3b421cb45}; !- CustomDay2 Schedule:Day Name

OS:Schedule:Day,
  {02e9df34-36ff-4829-9c3e-1bb3b421cb45}, !- Handle
  HTGSETP_SCH_BathCorrMechKitchen_DayProfile2, !- Name
  {1dd39dca-2597-4cfc-888e-cf5fe6e41e4c}, !- Schedule Type Limits Name
  ,                                       !- Interpolate to Timestep
  24,                                     !- Hour 1
  0,                                      !- Minute 1
  16;                                     !- Value Until Time 1

OS:ScheduleTypeLimits,
  {1dd39dca-2597-4cfc-888e-cf5fe6e41e4c}, !- Handle
  HTGSETP_SCH_BathCorrMechKitchen_DayProfile2_Limit, !- Name
  -60,                                    !- Lower Limit Value
  200,                                    !- Upper Limit Value
  CONTINUOUS,                             !- Numeric Type
  Dimensionless;                          !- Unit Type

OS:Schedule:Day,
  {e92eb255-68cd-4cca-b525-8510a6519afe}, !- Handle
  HTGSETP_SCH_BathCorrMechKitchen_DayProfile1, !- Name
  {c72bdfa3-a9da-4454-af46-2deac855752c}, !- Schedule Type Limits Name
  ,                                       !- Interpolate to Timestep
  6,                                      !- Hour 1
  0,                                      !- Minute 1
  16,                                     !- Value Until Time 1
  21,                                     !- Hour 2
  0,                                      !- Minute 2
  21,                                     !- Value Until Time 2
  24,                                     !- Hour 3
  0,                                      !- Minute 3
  16;                                     !- Value Until Time 3

OS:ScheduleTypeLimits,
  {c72bdfa3-a9da-4454-af46-2deac855752c}, !- Handle
  HTGSETP_SCH_BathCorrMechKitchen_DayProfile1_Limit, !- Name
  -60,                                    !- Lower Limit Value
  200,                                    !- Upper Limit Value
  CONTINUOUS,                             !- Numeric Type
  Dimensionless;                          !- Unit Type

OS:YearDescription,
  {956ff25f-d29e-4dcf-8acc-0d58f6ed73e0}, !- Handle
  2022,                                   !- Calendar Year
  ,                                       !- Day of Week for Start Day
  ;                                       !- Is Leap Year

OS:Schedule:Year,
  {4400731e-2656-46be-95dd-43655018f963}, !- Handle
  CLGSETP_SCH_BathCorrMechKitchen,        !- Name
  {ba775cc9-a434-4eb4-ac51-6b4bbd3cbc0d}, !- Schedule Type Limits Name
  12,                                     !- Month 1
  31,                                     !- Day 1
  {a1d2f2ed-2a6e-4e2d-9c72-7547a9be20eb}; !- Week Schedule Until Date 1

OS:Schedule:Week,
  {a1d2f2ed-2a6e-4e2d-9c72-7547a9be20eb}, !- Handle
  CLGSETP_SCH_BathCorrMechKitchen_WeekProfile1, !- Name
  ,                                       !- Schedule Rendering Name
  {cb679b00-b058-4a16-a940-016d01e9dd31}, !- Sunday Schedule:Day Name
  {cb679b00-b058-4a16-a940-016d01e9dd31}, !- Monday Schedule:Day Name
  {cb679b00-b058-4a16-a940-016d01e9dd31}, !- Tuesday Schedule:Day Name
  {cb679b00-b058-4a16-a940-016d01e9dd31}, !- Wednesday Schedule:Day Name
  {cb679b00-b058-4a16-a940-016d01e9dd31}, !- Thursday Schedule:Day Name
  {cb679b00-b058-4a16-a940-016d01e9dd31}, !- Friday Schedule:Day Name
  {cb679b00-b058-4a16-a940-016d01e9dd31}, !- Saturday Schedule:Day Name
  {cb679b00-b058-4a16-a940-016d01e9dd31}, !- Holiday Schedule:Day Name
  {7d4632c8-95f9-4ed6-b2f6-b932e68acbf5}, !- SummerDesignDay Schedule:Day Name
  {cb679b00-b058-4a16-a940-016d01e9dd31}, !- WinterDesignDay Schedule:Day Name
  {cb679b00-b058-4a16-a940-016d01e9dd31}, !- CustomDay1 Schedule:Day Name
  {cb679b00-b058-4a16-a940-016d01e9dd31}; !- CustomDay2 Schedule:Day Name

OS:Schedule:Day,
  {cb679b00-b058-4a16-a940-016d01e9dd31}, !- Handle
  CLGSETP_SCH_BathCorrMechKitchen_DayProfile2, !- Name
  {c6a47886-4386-4172-b223-6eb34a4ad4c6}, !- Schedule Type Limits Name
  ,                                       !- Interpolate to Timestep
  24,                                     !- Hour 1
  0,                                      !- Minute 1
  27;                                     !- Value Until Time 1

OS:ScheduleTypeLimits,
  {c6a47886-4386-4172-b223-6eb34a4ad4c6}, !- Handle
  CLGSETP_SCH_BathCorrMechKitchen_DayProfile2_Limit, !- Name
  -60,                                    !- Lower Limit Value
  200,                                    !- Upper Limit Value
  CONTINUOUS,                             !- Numeric Type
  Dimensionless;                          !- Unit Type

OS:Schedule:Day,
  {7d4632c8-95f9-4ed6-b2f6-b932e68acbf5}, !- Handle
  CLGSETP_SCH_BathCorrMechKitchen_DayProfile1, !- Name
  {525c9791-caec-46f6-836e-e6ed9720e40b}, !- Schedule Type Limits Name
  ,                                       !- Interpolate to Timestep
  6,                                      !- Hour 1
  0,                                      !- Minute 1
  27,                                     !- Value Until Time 1
  21,                                     !- Hour 2
  0,                                      !- Minute 2
  24,                                     !- Value Until Time 2
  24,                                     !- Hour 3
  0,                                      !- Minute 3
  27;                                     !- Value Until Time 3

OS:ScheduleTypeLimits,
  {525c9791-caec-46f6-836e-e6ed9720e40b}, !- Handle
  CLGSETP_SCH_BathCorrMechKitchen_DayProfile1_Limit, !- Name
  -60,                                    !- Lower Limit Value
  200,                                    !- Upper Limit Value
  CONTINUOUS,                             !- Numeric Type
  Dimensionless;                          !- Unit Type

OS:Building,
  {160eaad2-c6a1-45fb-8ca5-f657d80b50cc}, !- Handle
  Ref Bldg Secondary School New2004_v1.3_5.0 (A), !- Name
  ,                                       !- Building Sector Type
  0,                                      !- North Axis {deg}
  ,                                       !- Nominal Floor to Floor Height {m}
  ,                                       !- Space Type Name
  ,                                       !- Default Construction Set Name
  ;                                       !- Default Schedule Set Name

OS:Construction,
  {44a93a64-203b-4cbc-855d-07faf50a06b4}, !- Handle
  Window Non-res Fixed,                   !- Name
  {01240c57-8646-44fb-bd17-5da61ccdbbc1}, !- Surface Rendering Name
  {cfc41be3-09d8-4a42-b135-3931cbede4f3}; !- Layer 1

OS:WindowMaterial:SimpleGlazingSystem,
  {cfc41be3-09d8-4a42-b135-3931cbede4f3}, !- Handle
  NonRes Fixed Assembly Window [ in][ cm], !- Name
  3.23646,                                !- U-Factor {W/m2-K}
  0.39;                                   !- Solar Heat Gain Coefficient

OS:SubSurface,
  {cbe595e2-2bb7-479c-8686-612c4843c636}, !- Handle
  Offices_ZN_1_FLR_1_Wall_2_window_1,     !- Name
  FixedWindow,                            !- Sub Surface Type
  {44a93a64-203b-4cbc-855d-07faf50a06b4}, !- Construction Name
  {546c8301-d43e-4f00-bd45-92259b793bca}, !- Surface Name
  ,                                       !- Outside Boundary Condition Object
  ,                                       !- View Factor to Ground
  ,                                       !- Frame and Divider Name
  1,                                      !- Multiplier
  ,                                       !- Number of Vertices
  38, 0.05, 2.5101,                       !- X,Y,Z Vertex 1 {m}
  38, 0.05, 1.1,                          !- X,Y,Z Vertex 2 {m}
  38, 13.95, 1.1,                         !- X,Y,Z Vertex 3 {m}
  38, 13.95, 2.5101;                      !- X,Y,Z Vertex 4 {m}

OS:Surface,
  {546c8301-d43e-4f00-bd45-92259b793bca}, !- Handle
  Offices_ZN_1_FLR_1_Wall_2,              !- Name
  Wall,                                   !- Surface Type
  {f9edca7e-1e5e-4aa4-b087-cd9996abaa32}, !- Construction Name
  {b397ec0c-2d79-4cc2-bed5-f1208195710b}, !- Space Name
  Outdoors,                               !- Outside Boundary Condition
  ,                                       !- Outside Boundary Condition Object
  SunExposed,                             !- Sun Exposure
  WindExposed,                            !- Wind Exposure
  ,                                       !- View Factor to Ground
  ,                                       !- Number of Vertices
  38, 0, 4,                               !- X,Y,Z Vertex 1 {m}
  38, 0, 0,                               !- X,Y,Z Vertex 2 {m}
  38, 14, 0,                              !- X,Y,Z Vertex 3 {m}
  38, 14, 4;                              !- X,Y,Z Vertex 4 {m}

OS:Construction,
  {f9edca7e-1e5e-4aa4-b087-cd9996abaa32}, !- Handle
  Steel Frame Non-res Ext Wall,           !- Name
  {46393948-1b2a-490e-8934-ddbd99a9612d}, !- Surface Rendering Name
  {70245b47-a65f-4229-ad79-dd06d91199b1}, !- Layer 1
  {7b1f1b33-9186-4083-8b37-306d76b2ab82}, !- Layer 2
  {5271efac-9fe0-467b-84df-b19e9da6a46f}; !- Layer 3

OS:Material,
  {70245b47-a65f-4229-ad79-dd06d91199b1}, !- Handle
  Wood Siding [.394 in][1 cm],            !- Name
  MediumSmooth,                           !- Roughness
  0.01,                                   !- Thickness {m}
  0.11,                                   !- Conductivity {W/m-K}
  544.62,                                 !- Density {kg/m3}
  1210,                                   !- Specific Heat {J/kg-K}
  0.9,                                    !- Thermal Absorptance
  0.78,                                   !- Solar Absorptance
  0.78;                                   !- Visible Absorptance

OS:Material,
  {7b1f1b33-9186-4083-8b37-306d76b2ab82}, !- Handle
  Steel Frame NonRes Wall Insulation,     !- Name
  MediumRough,                            !- Roughness
  0.0870564552646045,                     !- Thickness {m}
  0.049,                                  !- Conductivity {W/m-K}
  265,                                    !- Density {kg/m3}
  836.8,                                  !- Specific Heat {J/kg-K}
  0.9,                                    !- Thermal Absorptance
  0.7,                                    !- Solar Absorptance
  0.7;                                    !- Visible Absorptance

OS:ThermalZone,
  {46f4839c-6247-4e96-8486-4df2eb2f3718}, !- Handle
  Offices_ZN_1_FLR_1,                     !- Name
  1,                                      !- Multiplier
  3.7984,                                 !- Ceiling Height {m}
  2018.2408836096,                        !- Volume {m3}
  ,                                       !- Floor Area {m2}
  ,                                       !- Zone Inside Convection Algorithm
  ,                                       !- Zone Outside Convection Algorithm
  ,                                       !- Zone Conditioning Equipment List Name
  {b8df48e2-e8b8-44fc-947a-9b9124c00c00}, !- Zone Air Inlet Port List
  {823ef568-0f50-4442-b42b-0d88014fcb4a}, !- Zone Air Exhaust Port List
  {e629b164-c91b-4c8b-be44-9d7fa1442017}, !- Zone Air Node Name
  {1076f818-4b85-426a-91a5-2feb9804c041}, !- Zone Return Air Port List
  ,                                       !- Primary Daylighting Control Name
  ,                                       !- Fraction of Zone Controlled by Primary Daylighting Control
  ,                                       !- Secondary Daylighting Control Name
  ,                                       !- Fraction of Zone Controlled by Secondary Daylighting Control
  ,                                       !- Illuminance Map Name
  {a737e22a-fbc7-4b0e-853c-8dc6973007d7}, !- Group Rendering Name
  {50421665-2569-4f5a-ba12-f4ae54e66393}, !- Thermostat Name
  No;                                     !- Use Ideal Air Loads

OS:Node,
  {9101f616-8bdb-4a29-ab53-68f20167c2f1}, !- Handle
  Node 2,                                 !- Name
  {e629b164-c91b-4c8b-be44-9d7fa1442017}, !- Inlet Port
  ;                                       !- Outlet Port

OS:Connection,
  {e629b164-c91b-4c8b-be44-9d7fa1442017}, !- Handle
  {46f4839c-6247-4e96-8486-4df2eb2f3718}, !- Source Object
  11,                                     !- Outlet Port
  {9101f616-8bdb-4a29-ab53-68f20167c2f1}, !- Target Object
  2;                                      !- Inlet Port

OS:PortList,
  {b8df48e2-e8b8-44fc-947a-9b9124c00c00}, !- Handle
  {46f4839c-6247-4e96-8486-4df2eb2f3718}; !- HVAC Component

OS:PortList,
  {823ef568-0f50-4442-b42b-0d88014fcb4a}, !- Handle
  {46f4839c-6247-4e96-8486-4df2eb2f3718}; !- HVAC Component

OS:PortList,
  {1076f818-4b85-426a-91a5-2feb9804c041}, !- Handle
  {46f4839c-6247-4e96-8486-4df2eb2f3718}; !- HVAC Component

OS:Sizing:Zone,
  {89811e11-46be-470a-b11b-4d5cbe5ce246}, !- Handle
  {46f4839c-6247-4e96-8486-4df2eb2f3718}, !- Zone or ZoneList Name
  SupplyAirTemperature,                   !- Zone Cooling Design Supply Air Temperature Input Method
  12.8,                                   !- Zone Cooling Design Supply Air Temperature {C}
  11.11,                                  !- Zone Cooling Design Supply Air Temperature Difference {deltaC}
  SupplyAirTemperature,                   !- Zone Heating Design Supply Air Temperature Input Method
  50,                                     !- Zone Heating Design Supply Air Temperature {C}
  11.11,                                  !- Zone Heating Design Supply Air Temperature Difference {deltaC}
  0.0085,                                 !- Zone Cooling Design Supply Air Humidity Ratio {kg-H2O/kg-air}
  0.008,                                  !- Zone Heating Design Supply Air Humidity Ratio {kg-H2O/kg-air}
  ,                                       !- Zone Heating Sizing Factor
  ,                                       !- Zone Cooling Sizing Factor
  DesignDay,                              !- Cooling Design Air Flow Method
  0,                                      !- Cooling Design Air Flow Rate {m3/s}
  0.000762,                               !- Cooling Minimum Air Flow per Zone Floor Area {m3/s-m2}
  0,                                      !- Cooling Minimum Air Flow {m3/s}
  0.2,                                    !- Cooling Minimum Air Flow Fraction
  DesignDay,                              !- Heating Design Air Flow Method
  0,                                      !- Heating Design Air Flow Rate {m3/s}
  0.002032,                               !- Heating Maximum Air Flow per Zone Floor Area {m3/s-m2}
  0.1415762,                              !- Heating Maximum Air Flow {m3/s}
  0.3,                                    !- Heating Maximum Air Flow Fraction
  No,                                     !- Account for Dedicated Outdoor Air System
  NeutralSupplyAir,                       !- Dedicated Outdoor Air System Control Strategy
  autosize,                               !- Dedicated Outdoor Air Low Setpoint Temperature for Design {C}
  autosize;                               !- Dedicated Outdoor Air High Setpoint Temperature for Design {C}

OS:ZoneHVAC:EquipmentList,
  {99273e5d-1972-4f3b-a712-02b16c150c0b}, !- Handle
  Zone HVAC Equipment List 2,             !- Name
  {46f4839c-6247-4e96-8486-4df2eb2f3718}; !- Thermal Zone

OS:Space,
  {b397ec0c-2d79-4cc2-bed5-f1208195710b}, !- Handle
  Offices_ZN_1_FLR_1 Space,               !- Name
  {8919781c-a0a1-47b4-8803-bc6c46d1ea45}, !- Space Type Name
  ,                                       !- Default Construction Set Name
  ,                                       !- Default Schedule Set Name
  0,                                      !- Direction of Relative North {deg}