
OS:Version,
  {d9efffdb-36c2-4d5d-99bc-47bca1fd06e8}, !- Handle
  3.3.0;                                  !- Version Identifier

OS:Site,
  {6667208b-4ad3-4b3b-85e4-16731a8342e4}, !- Handle
  USA_IL_Chicago Ohare Intl Ap,           !- Name
  41.98,                                  !- Latitude {deg}
  -87.92,                                 !- Longitude {deg}
  -6,                                     !- Time Zone {hr}
  201,                                    !- Elevation {m}
  City;                                   !- Terrain

OS:SimulationControl,
  {feedfb2b-c790-4000-8ff9-90f0fbc75777}, !- Handle
  Yes,                                    !- Do Zone Sizing Calculation
  Yes,                                    !- Do System Sizing Calculation
  Yes,                                    !- Do Plant Sizing Calculation
  Yes,                                    !- Run Simulation for Sizing Periods
  Yes,                                    !- Run Simulation for Weather File Run Periods
  0.04,                                   !- Loads Convergence Tolerance Value {W}
  0.2,                                    !- Temperature Convergence Tolerance Value {deltaC}
  FullInteriorAndExterior,                !- Solar Distribution
  25,                                     !- Maximum Number of Warmup Days
  6,                                      !- Minimum Number of Warmup Days
  No,                                     !- Do HVAC Sizing Simulation for Sizing Periods
  1;                                      !- Maximum Number of HVAC Sizing Simulation Passes

OS:SizingPeriod:DesignDay,
  {acf652c5-f9a3-45d3-a6b6-a5f47dcfd93c}, !- Handle
  CHICAGO Ann Htg 99.6% Condns DB,        !- Name
  -20.6,                                  !- Maximum Dry-Bulb Temperature {C}
  0,                                      !- Daily Dry-Bulb Temperature Range {deltaC}
  99063,                                  !- Barometric Pressure {Pa}
  4.9,                                    !- Wind Speed {m/s}
  270,                                    !- Wind Direction {deg}
  0,                                      !- Sky Clearness
  No,                                     !- Rain Indicator
  No,                                     !- Snow Indicator
  21,                                     !- Day of Month
  1,                                      !- Month
  WinterDesignDay,                        !- Day Type
  No,                                     !- Daylight Saving Time Indicator
  Wetbulb,                                !- Humidity Condition Type
  ,                                       !- Humidity Condition Day Schedule Name
  -20.6,                                  !- Wetbulb or DewPoint at Maximum Dry-Bulb {C}
  ,                                       !- Humidity Ratio at Maximum Dry-Bulb {kgWater/kgDryAir}
  ,                                       !- Enthalpy at Maximum Dry-Bulb {J/kg}
  DefaultMultipliers,                     !- Dry-Bulb Temperature Range Modifier Type
  ,                                       !- Dry-Bulb Temperature Range Modifier Day Schedule Name
  ASHRAEClearSky;                         !- Solar Model Indicator

OS:SizingPeriod:DesignDay,
  {3eb0bf59-362f-4682-b37d-0ff5d024c9bc}, !- Handle
  CHICAGO Ann Clg .4% Condns WB=>MDB,     !- Name
  31.2,                                   !- Maximum Dry-Bulb Temperature {C}
  10.7,                                   !- Daily Dry-Bulb Temperature Range {deltaC}
  99063,                                  !- Barometric Pressure {Pa}
  5.3,                                    !- Wind Speed {m/s}
  230,                                    !- Wind Direction {deg}
  1,                                      !- Sky Clearness
  No,                                     !- Rain Indicator
  No,                                     !- Snow Indicator
  21,                                     !- Day of Month
  7,                                      !- Month
  SummerDesignDay,                        !- Day Type
  No,                                     !- Daylight Saving Time Indicator
  Wetbulb,                                !- Humidity Condition Type
  ,                                       !- Humidity Condition Day Schedule Name
  25.5,                                   !- Wetbulb or DewPoint at Maximum Dry-Bulb {C}
  ,                                       !- Humidity Ratio at Maximum Dry-Bulb {kgWater/kgDryAir}
  ,                                       !- Enthalpy at Maximum Dry-Bulb {J/kg}
  DefaultMultipliers,                     !- Dry-Bulb Temperature Range Modifier Type
  ,                                       !- Dry-Bulb Temperature Range Modifier Day Schedule Name
  ASHRAEClearSky;                         !- Solar Model Indicator

OS:ScheduleTypeLimits,
  {1d5827a6-7c19-43bb-9fb6-6fe55afc7549}, !- Handle
  BLDG_OCC_SCH_DayProfile3_Limit,         !- Name
  0,                                      !- Lower Limit Value
  1,                                      !- Upper Limit Value
  CONTINUOUS,                             !- Numeric Type
  Dimensionless;                          !- Unit Type

OS:Schedule:Day,
  {d77ac6ac-08cb-44ee-8da8-228995b90ccb}, !- Handle
  BLDG_EQUIP_SCH_DayProfile5,             !- Name
  {a9d405cf-c99a-4a0b-8786-b01901e36346}, !- Schedule Type Limits Name
  ,                                       !- Interpolate to Timestep
  2,                                      !- Hour 1
  0,                                      !- Minute 1
  0,                                      !- Value Until Time 1
  6,                                      !- Hour 2
  0,                                      !- Minute 2
  0,                                      !- Value Until Time 2
  7,                                      !- Hour 3
  0,                                      !- Minute 3
  0,                                      !- Value Until Time 3
  9,                                      !- Hour 4
  0,                                      !- Minute 4
  0,                                      !- Value Until Time 4
  13,                                     !- Hour 5
  0,                                      !- Minute 5
  0,                                      !- Value Until Time 5
  18,                                     !- Hour 6
  0,                                      !- Minute 6
  0,                                      !- Value Until Time 6
  19,                                     !- Hour 7
  0,                                      !- Minute 7
  1,                                      !- Value Until Time 7
  20,                                     !- Hour 8
  0,                                      !- Minute 8
  1,                                      !- Value Until Time 8
  21,                                     !- Hour 9
  0,                                      !- Minute 9
  1,                                      !- Value Until Time 9
  22,                                     !- Hour 10
  0,                                      !- Minute 10
  1,                                      !- Value Until Time 10
  23,                                     !- Hour 11
  0,                                      !- Minute 11
  1,                                      !- Value Until Time 11
  24,                                     !- Hour 12
  0,                                      !- Minute 12
  0;                                      !- Value Until Time 12

OS:ScheduleTypeLimits,
  {a9d405cf-c99a-4a0b-8786-b01901e36346}, !- Handle
  BLDG_EQUIP_SCH_DayProfile5_Limit,       !- Name
  0,                                      !- Lower Limit Value
  1,                                      !- Upper Limit Value
  CONTINUOUS,                             !- Numeric Type
  Dimensionless;                          !- Unit Type

OS:SubSurface,
  {d2b9b27d-119a-40d3-a5c0-867e12792178}, !- Handle
  W_GuestRoom104_3_0_0_0_0,               !- Name
  FixedWindow,                            !- Sub Surface Type
  {8118fe6d-ab99-4012-b4d2-f0bf322b118c}, !- Construction Name
  {8dc7933d-6815-46dc-b1a5-4245b642d865}, !- Surface Name
  ,                                       !- Outside Boundary Condition Object
  ,                                       !- View Factor to Ground
  ,                                       !- Frame and Divider Name
  1,                                      !- Multiplier
  ,                                       !- Number of Vertices
  51.063, 18.3374, 2.3984,                !- X,Y,Z Vertex 1 {m}
  51.063, 18.3374, 0.9544,                !- X,Y,Z Vertex 2 {m}
  49.923, 18.3374, 0.9544,                !- X,Y,Z Vertex 3 {m}
  49.923, 18.3374, 2.3984;                !- X,Y,Z Vertex 4 {m}

OS:Construction,
  {8118fe6d-ab99-4012-b4d2-f0bf322b118c}, !- Handle
  Window Res Fixed,                       !- Name
  {c0bdb212-febe-493d-8132-479cc7a27bbe}, !- Surface Rendering Name
  {ae8d3bad-e988-47fa-896c-2dcb9fb83ad8}; !- Layer 1

OS:WindowMaterial:SimpleGlazingSystem,
  {ae8d3bad-e988-47fa-896c-2dcb9fb83ad8}, !- Handle
  Res Fixed Assembly Window [ in][ cm],   !- Name
  3.23646,                                !- U-Factor {W/m2-K}
  0.39;                                   !- Solar Heat Gain Coefficient

OS:Surface,
  {8dc7933d-6815-46dc-b1a5-4245b642d865}, !- Handle
  W_GuestRoom104_3_0_0,                   !- Name
  Wall,                                   !- Surface Type
  {97d083cf-a8cf-441d-85b8-117cd12922cd}, !- Construction Name
  {8ab9b9a4-c14b-467c-8509-e3675d33509c}, !- Space Name
  Outdoors,                               !- Outside Boundary Condition
  ,                                       !- Outside Boundary Condition Object
  SunExposed,                             !- Sun Exposure
  WindExposed,                            !- Wind Exposure
  ,                                       !- View Factor to Ground
  ,                                       !- Number of Vertices
  52.4743, 18.3374, 3.3528,               !- X,Y,Z Vertex 1 {m}
  52.4743, 18.3374, 0,                    !- X,Y,Z Vertex 2 {m}
  48.5119, 18.3374, 0,                    !- X,Y,Z Vertex 3 {m}
  48.5119, 18.3374, 3.3528;               !- X,Y,Z Vertex 4 {m}

OS:Construction,
  {97d083cf-a8cf-441d-85b8-117cd12922cd}, !- Handle
  Steel Frame Res Ext Wall,               !- Name
  {0b55f5e9-8c27-4877-8c42-fc5bb6225f80}, !- Surface Rendering Name
  {538ff4ba-2d5c-4b0a-a911-007f7cfdede7}, !- Layer 1
  {0778a94a-234c-4dfc-b0d0-d87d52eed529}, !- Layer 2
  {179732d4-f173-4492-a305-ef30db1f0525}; !- Layer 3

OS:Material,
  {538ff4ba-2d5c-4b0a-a911-007f7cfdede7}, !- Handle
  Wood Siding [.394 in][1 cm],            !- Name
  MediumSmooth,                           !- Roughness
  0.01,                                   !- Thickness {m}
  0.11,                                   !- Conductivity {W/m-K}
  544.62,                                 !- Density {kg/m3}
  1210,                                   !- Specific Heat {J/kg-K}
  0.9,                                    !- Thermal Absorptance
  0.78,                                   !- Solar Absorptance
  0.78;                                   !- Visible Absorptance

OS:Material,
  {0778a94a-234c-4dfc-b0d0-d87d52eed529}, !- Handle
  Steel Frame Res Wall Insulation,        !- Name
  MediumRough,                            !- Roughness
  0.119161363096001,                      !- Thickness {m}
  0.049,                                  !- Conductivity {W/m-K}
  265,                                    !- Density {kg/m3}
  836.8,                                  !- Specific Heat {J/kg-K}
  0.9,                                    !- Thermal Absorptance
  0.7,                                    !- Solar Absorptance
  0.7;                                    !- Visible Absorptance

OS:Material,
  {179732d4-f173-4492-a305-ef30db1f0525}, !- Handle
  1/2IN Gypsum [.5 in][1.27 cm],          !- Name
  Smooth,                                 !- Roughness
  0.0127,                                 !- Thickness {m}
  0.16,                                   !- Conductivity {W/m-K}
  784.9,                                  !- Density {kg/m3}
  830,                                    !- Specific Heat {J/kg-K}
  0.9,                                    !- Thermal Absorptance
  0.92,                                   !- Solar Absorptance
  0.92;                                   !- Visible Absorptance

OS:ThermalZone,
  {1b808865-3088-4e66-a59a-65ca96b3bfe9}, !- Handle
  GuestRoom104,                           !- Name
  1,                                      !- Multiplier
  3.1512,                                 !- Ceiling Height {m}
  101.9411246256,                         !- Volume {m3}
  ,                                       !- Floor Area {m2}
  ,                                       !- Zone Inside Convection Algorithm
  ,                                       !- Zone Outside Convection Algorithm
  ,                                       !- Zone Conditioning Equipment List Name
  {0b2ed33c-e6ea-4097-a332-d7c30e7f991d}, !- Zone Air Inlet Port List
  {a520507e-dd8c-4346-b95b-5526c768b56c}, !- Zone Air Exhaust Port List
  {5cce3cae-1837-4c2e-b0bc-d16d6850892a}, !- Zone Air Node Name
  {b62d9f42-70f6-4b31-a333-36055083335b}, !- Zone Return Air Port List
  ,                                       !- Primary Daylighting Control Name
  ,                                       !- Fraction of Zone Controlled by Primary Daylighting Control
  ,                                       !- Secondary Daylighting Control Name
  ,                                       !- Fraction of Zone Controlled by Secondary Daylighting Control
  ,                                       !- Illuminance Map Name
  {6592c84b-c445-4966-934d-4ac8107c3ce7}, !- Group Rendering Name
  {56399ac0-cca4-4845-8892-024df3659ae7}, !- Thermostat Name
  No;                                     !- Use Ideal Air Loads

OS:Node,
  {a5282ba5-9344-4d02-a917-39e3f28d73d4}, !- Handle
  Node 1,                                 !- Name
  {5cce3cae-1837-4c2e-b0bc-d16d6850892a}, !- Inlet Port
  ;                                       !- Outlet Port

OS:Connection,
  {5cce3cae-1837-4c2e-b0bc-d16d6850892a}, !- Handle
  {1b808865-3088-4e66-a59a-65ca96b3bfe9}, !- Source Object
  11,                                     !- Outlet Port
  {a5282ba5-9344-4d02-a917-39e3f28d73d4}, !- Target Object
  2;                                      !- Inlet Port

OS:PortList,
  {0b2ed33c-e6ea-4097-a332-d7c30e7f991d}, !- Handle
  {1b808865-3088-4e66-a59a-65ca96b3bfe9}; !- HVAC Component

OS:PortList,
  {a520507e-dd8c-4346-b95b-5526c768b56c}, !- Handle
  {1b808865-3088-4e66-a59a-65ca96b3bfe9}; !- HVAC Component

OS:PortList,
  {b62d9f42-70f6-4b31-a333-36055083335b}, !- Handle
  {1b808865-3088-4e66-a59a-65ca96b3bfe9}; !- HVAC Component

OS:Sizing:Zone,
  {a8b63f9b-85eb-4c58-b60a-da9bfc9df837}, !- Handle
  {1b808865-3088-4e66-a59a-65ca96b3bfe9}, !- Zone or ZoneList Name
  SupplyAirTemperature,                   !- Zone Cooling Design Supply Air Temperature Input Method
  14,                                     !- Zone Cooling Design Supply Air Temperature {C}
  11.11,                                  !- Zone Cooling Design Supply Air Temperature Difference {deltaC}
  SupplyAirTemperature,                   !- Zone Heating Design Supply Air Temperature Input Method
  40,                                     !- Zone Heating Design Supply Air Temperature {C}
  11.11,                                  !- Zone Heating Design Supply Air Temperature Difference {deltaC}
  0.0085,                                 !- Zone Cooling Design Supply Air Humidity Ratio {kg-H2O/kg-air}
  0.008,                                  !- Zone Heating Design Supply Air Humidity Ratio {kg-H2O/kg-air}
  ,                                       !- Zone Heating Sizing Factor
  ,                                       !- Zone Cooling Sizing Factor
  DesignDay,                              !- Cooling Design Air Flow Method
  0,                                      !- Cooling Design Air Flow Rate {m3/s}
  0.000762,                               !- Cooling Minimum Air Flow per Zone Floor Area {m3/s-m2}
  0,                                      !- Cooling Minimum Air Flow {m3/s}
  0.2,                                    !- Cooling Minimum Air Flow Fraction
  DesignDay,                              !- Heating Design Air Flow Method
  0,                                      !- Heating Design Air Flow Rate {m3/s}
  0.002032,                               !- Heating Maximum Air Flow per Zone Floor Area {m3/s-m2}
  0.1415762,                              !- Heating Maximum Air Flow {m3/s}
  0.3,                                    !- Heating Maximum Air Flow Fraction
  No,                                     !- Account for Dedicated Outdoor Air System
  NeutralSupplyAir,                       !- Dedicated Outdoor Air System Control Strategy
  autosize,                               !- Dedicated Outdoor Air Low Setpoint Temperature for Design {C}
  autosize;                               !- Dedicated Outdoor Air High Setpoint Temperature for Design {C}

OS:ZoneHVAC:EquipmentList,
  {8f411926-9644-4cbe-8f84-613977e0281c}, !- Handle
  Zone HVAC Equipment List 1,             !- Name
  {1b808865-3088-4e66-a59a-65ca96b3bfe9}; !- Thermal Zone

OS:Space,
  {8ab9b9a4-c14b-467c-8509-e3675d33509c}, !- Handle
  GuestRoom104 Space,                     !- Name
  {c22fe916-9585-4ce9-a809-d79612bf9c2f}, !- Space Type Name
  ,                                       !- Default Construction Set Name
  ,                                       !- Default Schedule Set Name
  0,                                      !- Direction of Relative North {deg}
  0,                                      !- X Origin {m}
  0,                                      !- Y Origin {m}
  0,                                      !- Z Origin {m}
  ,                                       !- Building Story Name
  {1b808865-3088-4e66-a59a-65ca96b3bfe9}, !- Thermal Zone Name
  Yes,                                    !- Part of Total Floor Area
  {34de9b7a-0c95-4f1a-8f5d-fb6853046fc9}; !- Design Specification Outdoor Air Object Name

OS:ThermostatSetpoint:DualSetpoint,
  {56399ac0-cca4-4845-8892-024df3659ae7}, !- Handle
  GuestRoom104 DualSPSched,               !- Name
  ,                                       !- Heating Setpoint Temperature Schedule Name
  ,                                       !- Cooling Setpoint Temperature Schedule Name
  0;                                      !- Temperature Difference Between Cutout And Setpoint {deltaC}

OS:Schedule:Year,
  {ee0a7b8f-c54d-41b9-8de8-6013568aaf52}, !- Handle
  HTGSETP_SCH,                            !- Name
  {16a8230f-d2b5-475f-aaf5-9ab81cf127f1}, !- Schedule Type Limits Name
  12,                                     !- Month 1
  31,                                     !- Day 1
  {89ed8ba3-1a29-46cb-a453-c7336a3500e4}; !- Week Schedule Until Date 1

OS:ScheduleTypeLimits,
  {16a8230f-d2b5-475f-aaf5-9ab81cf127f1}, !- Handle
  Temperature,                            !- Name
  -60,                                    !- Lower Limit Value
  200,                                    !- Upper Limit Value
  CONTINUOUS,                             !- Numeric Type
  Dimensionless;                          !- Unit Type

OS:Schedule:Week,
  {89ed8ba3-1a29-46cb-a453-c7336a3500e4}, !- Handle
  HTGSETP_SCH_WeekProfile1,               !- Name
  ,                                       !- Schedule Rendering Name
  {652aa17d-1de6-4371-8036-a4f7d057b032}, !- Sunday Schedule:Day Name
  {652aa17d-1de6-4371-8036-a4f7d057b032}, !- Monday Schedule:Day Name
  {652aa17d-1de6-4371-8036-a4f7d057b032}, !- Tuesday Schedule:Day Name
  {652aa17d-1de6-4371-8036-a4f7d057b032}, !- Wednesday Schedule:Day Name
  {652aa17d-1de6-4371-8036-a4f7d057b032}, !- Thursday Schedule:Day Name
  {652aa17d-1de6-4371-8036-a4f7d057b032}, !- Friday Schedule:Day Name
  {652aa17d-1de6-4371-8036-a4f7d057b032}, !- Saturday Schedule:Day Name
  {652aa17d-1de6-4371-8036-a4f7d057b032}, !- Holiday Schedule:Day Name
  {652aa17d-1de6-4371-8036-a4f7d057b032}, !- SummerDesignDay Schedule:Day Name
  {652aa17d-1de6-4371-8036-a4f7d057b032}, !- WinterDesignDay Schedule:Day Name
  {652aa17d-1de6-4371-8036-a4f7d057b032}, !- CustomDay1 Schedule:Day Name
  {652aa17d-1de6-4371-8036-a4f7d057b032}; !- CustomDay2 Schedule:Day Name

OS:Schedule:Day,
  {652aa17d-1de6-4371-8036-a4f7d057b032}, !- Handle
  HTGSETP_SCH_DayProfile1,                !- Name
  {db137fc6-0ef0-44b8-b116-94a3c81989f2}, !- Schedule Type Limits Name
  ,                                       !- Interpolate to Timestep
  24,                                     !- Hour 1
  0,                                      !- Minute 1
  21;                                     !- Value Until Time 1

OS:ScheduleTypeLimits,
  {db137fc6-0ef0-44b8-b116-94a3c81989f2}, !- Handle
  HTGSETP_SCH_DayProfile1_Limit,          !- Name
  -60,                                    !- Lower Limit Value
  200,                                    !- Upper Limit Value
  CONTINUOUS,                             !- Numeric Type
  Dimensionless;                          !- Unit Type

OS:YearDescription,
  {eae24561-266f-4c33-8e97-a5c8b439b1d7}, !- Handle
  2022,                                   !- Calendar Year
  ,                                       !- Day of Week for Start Day
  ;                                       !- Is Leap Year

OS:Schedule:Year,
  {c1e62a56-a856-4997-a52e-077a92d29dea}, !- Handle
  CLGSETP_SCH,                            !- Name
  {16a8230f-d2b5-475f-aaf5-9ab81cf127f1}, !- Schedule Type Limits Name
  12,                                     !- Month 1
  31,                                     !- Day 1
  {302df022-97b9-4941-8ee6-e48f8891bc21}; !- Week Schedule Until Date 1

OS:Schedule:Week,
  {302df022-97b9-4941-8ee6-e48f8891bc21}, !- Handle
  CLGSETP_SCH_WeekProfile1,               !- Name
  ,                                       !- Schedule Rendering Name
  {5db48aea-43ed-4fe6-a245-cb1c86d63b45}, !- Sunday Schedule:Day Name
  {5db48aea-43ed-4fe6-a245-cb1c86d63b45}, !- Monday Schedule:Day Name
  {5db48aea-43ed-4fe6-a245-cb1c86d63b45}, !- Tuesday Schedule:Day Name
  {5db48aea-43ed-4fe6-a245-cb1c86d63b45}, !- Wednesday Schedule:Day Name
  {5db48aea-43ed-4fe6-a245-cb1c86d63b45}, !- Thursday Schedule:Day Name
  {5db48aea-43ed-4fe6-a245-cb1c86d63b45}, !- Friday Schedule:Day Name
  {5db48aea-43ed-4fe6-a245-cb1c86d63b45}, !- Saturday Schedule:Day Name
  {5db48aea-43ed-4fe6-a245-cb1c86d63b45}, !- Holiday Schedule:Day Name
  {5db48aea-43ed-4fe6-a245-cb1c86d63b45}, !- SummerDesignDay Schedule:Day Name
  {5db48aea-43ed-4fe6-a245-cb1c86d63b45}, !- WinterDesignDay Schedule:Day Name
  {5db48aea-43ed-4fe6-a245-cb1c86d63b45}, !- CustomDay1 Schedule:Day Name
  {5db48aea-43ed-4fe6-a245-cb1c86d63b45}; !- CustomDay2 Schedule:Day Name

OS:Schedule:Day,
  {5db48aea-43ed-4fe6-a245-cb1c86d63b45}, !- Handle
  CLGSETP_SCH_DayProfile1,                !- Name
  {b4cc9d79-66d8-45fe-b3c3-8b70cb92bc37}, !- Schedule Type Limits Name
  ,                                       !- Interpolate to Timestep
  24,                                     !- Hour 1
  0,                                      !- Minute 1
  24;                                     !- Value Until Time 1

OS:ScheduleTypeLimits,
  {b4cc9d79-66d8-45fe-b3c3-8b70cb92bc37}, !- Handle
  CLGSETP_SCH_DayProfile1_Limit,          !- Name
  -60,                                    !- Lower Limit Value
  200,                                    !- Upper Limit Value
  CONTINUOUS,                             !- Numeric Type
  Dimensionless;                          !- Unit Type

OS:Building,
  {a5cad33c-015d-4468-b2ef-9d6277396754}, !- Handle
  Ref Bldg Small Hotel New2004_v1.3_5.0 (A), !- Name
  ,                                       !- Building Sector Type
  0,                                      !- North Axis {deg}
  ,                                       !- Nominal Floor to Floor Height {m}
  ,                                       !- Space Type Name
  ,                                       !- Default Construction Set Name
  ;                                       !- Default Schedule Set Name

OS:Surface,
  {89c14cd2-9990-4936-8e5a-8ac13a9d51bc}, !- Handle
  W_RestroomFlr1_5_0_0,                   !- Name
  Wall,                                   !- Surface Type
  {97d083cf-a8cf-441d-85b8-117cd12922cd}, !- Construction Name
  {6c4f3435-92eb-4745-97e4-84b425ab45cd}, !- Space Name
  Outdoors,                               !- Outside Boundary Condition
  ,                                       !- Outside Boundary Condition Object
  SunExposed,                             !- Sun Exposure
  WindExposed,                            !- Wind Exposure
  ,                                       !- View Factor to Ground
  ,                                       !- Number of Vertices
  19.8607, 0.0488, 3.3528,                !- X,Y,Z Vertex 1 {m}
  19.8607, 0.0488, 0,                     !- X,Y,Z Vertex 2 {m}
  23.8231, 0.0488, 0,                     !- X,Y,Z Vertex 3 {m}
  23.8231, 0.0488, 3.3528;                !- X,Y,Z Vertex 4 {m}

OS:ThermalZone,
  {b452b265-f795-4805-8b72-52888165c556}, !- Handle
  RestroomFlr1,                           !- Name
  1,                                      !- Multiplier
  3.1512,                                 !- Ceiling Height {m}
  101.9485236432,                         !- Volume {m3}
  ,                                       !- Floor Area {m2}
  ,                                       !- Zone Inside Convection Algorithm
  ,                                       !- Zone Outside Convection Algorithm
  ,                                       !- Zone Conditioning Equipment List Name
  {75eef8a3-7334-438b-b1b6-15b4eec91257}, !- Zone Air Inlet Port List
  {6ab9e95d-4325-4fe2-b909-a3c22ea62ca0}, !- Zone Air Exhaust Port List
  {337c9a79-6928-48a7-ae4e-4b397ce3ffd6}, !- Zone Air Node Name
  {2838c5d5-30bd-4cd2-b844-f87b8ee9ae72}, !- Zone Return Air Port List
  ,                                       !- Primary Daylighting Control Name
  ,                                       !- Fraction of Zone Controlled by Primary Daylighting Control
  ,                                       !- Secondary Daylighting Control Name
  ,                                       !- Fraction of Zone Controlled by Secondary Daylighting Control
  ,                                       !- Illuminance Map Name
  {d219175e-7140-4573-9700-6a1163093e4b}, !- Group Rendering Name
  {d986a137-3a29-4a8c-b193-bed64a5da4f0}, !- Thermostat Name
  No;                                     !- Use Ideal Air Loads

OS:Node,
  {98183995-68bc-4b26-8893-0c7447a1d0a9}, !- Handle
  Node 2,                                 !- Name
  {337c9a79-6928-48a7-ae4e-4b397ce3ffd6}, !- Inlet Port
  ;                                       !- Outlet Port

OS:Connection,
  {337c9a79-6928-48a7-ae4e-4b397ce3ffd6}, !- Handle
  {b452b265-f795-4805-8b72-52888165c556}, !- Source Object
  11,                                     !- Outlet Port
  {98183995-68bc-4b26-8893-0c7447a1d0a9}, !- Target Object
  2;                                      !- Inlet Port

OS:PortList,
  {75eef8a3-7334-438b-b1b6-15b4eec91257}, !- Handle
  {b452b265-f795-4805-8b72-52888165c556}; !- HVAC Component

OS:PortList,
  {6ab9e95d-4325-4fe2-b909-a3c22ea62ca0}, !- Handle
  {b452b265-f795-4805-8b72-52888165c556}; !- HVAC Component

OS:PortList,
  {2838c5d5-30bd-4cd2-b844-f87b8ee9ae72}, !- Handle
  {b452b265-f795-4805-8b72-52888165c556}; !- HVAC Component

OS:Sizing:Zone,
  {5c5606eb-659a-4c37-ad4e-84dbcc141a47}, !- Handle
  {b452b265-f795-4805-8b72-52888165c556}, !- Zone or ZoneList Name
  SupplyAirTemperature,                   !- Zone Cooling Design Supply Air Temperature Input Method
  14,                                     !- Zone Cooling Design Supply Air Temperature {C}
  11.11,                                  !- Zone Cooling Design Supply Air Temperature Difference {deltaC}
  SupplyAirTemperature,                   !- Zone Heating Design Supply Air Temperature Input Method
  40,                                     !- Zone Heating Design Supply Air Temperature {C}
  11.11,                                  !- Zone Heating Design Supply Air Temperature Difference {deltaC}
  0.0085,                                 !- Zone Cooling Design Supply Air Humidity Ratio {kg-H2O/kg-air}
  0.008,                                  !- Zone Heating Design Supply Air Humidity Ratio {kg-H2O/kg-air}
  ,                                       !- Zone Heating Sizing Factor
  ,                                       !- Zone Cooling Sizing Factor
  DesignDay,                              !- Cooling Design Air Flow Method
  0,                                      !- Cooling Design Air Flow Rate {m3/s}
  0.000762,                               !- Cooling Minimum Air Flow per Zone Floor Area {m3/s-m2}
  0,                                      !- Cooling Minimum Air Flow {m3/s}
  0.2,                                    !- Cooling Minimum Air Flow Fraction
  DesignDay,                              !- Heating Design Air Flow Method
  0,                                      !- Heating Design Air Flow Rate {m3/s}
  0.002032,                               !- Heating Maximum Air Flow per Zone Floor Area {m3/s-m2}
  0.1415762,                              !- Heating Maximum Air Flow {m3/s}
  0.3,                                    !- Heating Maximum Air Flow Fraction
  No,                                     !- Account for Dedicated Outdoor Air System
  NeutralSupplyAir,                       !- Dedicated Outdoor Air System Control Strategy
  autosize,                               !- Dedicated Outdoor Air Low Setpoint Temperature for Design {C}
  autosize;                               !- Dedicated Outdoor Air High Setpoint Temperature for Design {C}

OS:ZoneHVAC:EquipmentList,
  {bf439b92-e58d-40d4-a4c0-3cde612281c6}, !- Handle
  Zone HVAC Equipment List 2,             !- Name
  {b452b265-f795-4805-8b72-52888165c556}; !- Thermal Zone

OS:Space,