
OS:Version,
  {5611a45b-1f3b-4a3f-943a-9837d923bacc}, !- Handle
  3.3.0;                                  !- Version Identifier

OS:Site,
  {53eed865-4aa6-462b-bcfb-f302e296e344}, !- Handle
  USA_IL_Chicago Ohare Intl Ap,           !- Name
  41.98,                                  !- Latitude {deg}
  -87.92,                                 !- Longitude {deg}
  -6,                                     !- Time Zone {hr}
  201,                                    !- Elevation {m}
  City;                                   !- Terrain

OS:SimulationControl,
  {a116d47b-128d-475a-b711-2e56cb70578a}, !- Handle
  Yes,                                    !- Do Zone Sizing Calculation
  Yes,                                    !- Do System Sizing Calculation
  Yes,                                    !- Do Plant Sizing Calculation
  Yes,                                    !- Run Simulation for Sizing Periods
  Yes,                                    !- Run Simulation for Weather File Run Periods
  0.04,                                   !- Loads Convergence Tolerance Value {W}
  0.2,                                    !- Temperature Convergence Tolerance Value {deltaC}
  FullInteriorAndExterior,                !- Solar Distribution
  25,                                     !- Maximum Number of Warmup Days
  6,                                      !- Minimum Number of Warmup Days
  No,                                     !- Do HVAC Sizing Simulation for Sizing Periods
  1;                                      !- Maximum Number of HVAC Sizing Simulation Passes

OS:Surface,
  {4fb26782-6d6a-4cf8-90d9-a8d9d7285550}, !- Handle
  F0D8EE,                                 !- Name
  RoofCeiling,                            !- Surface Type
  {d9cfa6b1-9484-4db0-b0b1-d7ad0706ca46}, !- Construction Name
  {e84c1de5-d2a1-4af9-95a5-ae9cf04f8b41}, !- Space Name
  Adiabatic,                              !- Outside Boundary Condition
  ,                                       !- Outside Boundary Condition Object
  NoSun,                                  !- Sun Exposure
  NoWind,                                 !- Wind Exposure
  ,                                       !- View Factor to Ground
  ,                                       !- Number of Vertices
  0, -10.0584, 3.048,                     !- X,Y,Z Vertex 1 {m}
  0, 0, 3.048,                            !- X,Y,Z Vertex 2 {m}
  -7.3152, 0, 3.048,                      !- X,Y,Z Vertex 3 {m}
  -7.3152, -10.0584, 3.048;               !- X,Y,Z Vertex 4 {m}

OS:Construction,
  {d9cfa6b1-9484-4db0-b0b1-d7ad0706ca46}, !- Handle
  INT-FLOOR-UNDERSIDE,                    !- Name
  {e8cb3284-aaba-4e61-857d-fbf30db0b890}, !- Surface Rendering Name
  {cea22c46-40ce-4014-9bfc-b70f871420a3}, !- Layer 1
  {ee569440-7fd3-47f7-b865-663e5c5010e2}; !- Layer 2

OS:Material:NoMass,
  {cea22c46-40ce-4014-9bfc-b70f871420a3}, !- Handle
  CP02 CARPET PAD [3.937 in][10 cm],      !- Name
  VeryRough,                              !- Roughness
  0.2165,                                 !- Thermal Resistance {m2-K/W}
  0.9,                                    !- Thermal Absorptance
  0.7,                                    !- Solar Absorptance
  0.8;                                    !- Visible Absorptance

OS:Material,
  {ee569440-7fd3-47f7-b865-663e5c5010e2}, !- Handle
  MAT-CC05 4 HW CONCRETE [4 in][10.16 cm], !- Name
  Rough,                                  !- Roughness
  0.1016,                                 !- Thickness {m}
  1.311,                                  !- Conductivity {W/m-K}
  2240,                                   !- Density {kg/m3}
  836.8,                                  !- Specific Heat {J/kg-K}
  0.9,                                    !- Thermal Absorptance
  0.7,                                    !- Solar Absorptance
  0.7;                                    !- Visible Absorptance

OS:ThermalZone,
  {3f6bd996-9d81-495b-aa18-404059a003fb}, !- Handle
  Floor 2 Exam 7,                         !- Name
  1,                                      !- Multiplier
  2.8464,                                 !- Ceiling Height {m}
  207.4562433792,                         !- Volume {m3}
  ,                                       !- Floor Area {m2}
  ,                                       !- Zone Inside Convection Algorithm
  ,                                       !- Zone Outside Convection Algorithm
  ,                                       !- Zone Conditioning Equipment List Name
  {ea46f5c6-6532-4978-939c-858bd59d3dac}, !- Zone Air Inlet Port List
  {102d5a10-6385-44be-aa56-5ad53ea548ad}, !- Zone Air Exhaust Port List
  {98f6f6d5-5ee3-4d0c-a750-12bb9a33a317}, !- Zone Air Node Name
  {853c7191-eac1-4567-be5a-93ea83efd0ad}, !- Zone Return Air Port List
  ,                                       !- Primary Daylighting Control Name
  ,                                       !- Fraction of Zone Controlled by Primary Daylighting Control
  ,                                       !- Secondary Daylighting Control Name
  ,                                       !- Fraction of Zone Controlled by Secondary Daylighting Control
  ,                                       !- Illuminance Map Name
  {5fd0de11-65b2-4805-b270-787686d54ef2}, !- Group Rendering Name
  {28a1e0b3-89ac-4f0d-aecf-d093b0fb0e40}, !- Thermostat Name
  No;                                     !- Use Ideal Air Loads

OS:Node,
  {b90aa3d2-7eee-4b80-af9e-47228c8eda0b}, !- Handle
  Node 1,                                 !- Name
  {98f6f6d5-5ee3-4d0c-a750-12bb9a33a317}, !- Inlet Port
  ;                                       !- Outlet Port

OS:Connection,
  {98f6f6d5-5ee3-4d0c-a750-12bb9a33a317}, !- Handle
  {3f6bd996-9d81-495b-aa18-404059a003fb}, !- Source Object
  11,                                     !- Outlet Port
  {b90aa3d2-7eee-4b80-af9e-47228c8eda0b}, !- Target Object
  2;                                      !- Inlet Port

OS:PortList,
  {ea46f5c6-6532-4978-939c-858bd59d3dac}, !- Handle
  {3f6bd996-9d81-495b-aa18-404059a003fb}; !- HVAC Component

OS:PortList,
  {102d5a10-6385-44be-aa56-5ad53ea548ad}, !- Handle
  {3f6bd996-9d81-495b-aa18-404059a003fb}; !- HVAC Component

OS:PortList,
  {853c7191-eac1-4567-be5a-93ea83efd0ad}, !- Handle
  {3f6bd996-9d81-495b-aa18-404059a003fb}; !- HVAC Component

OS:Sizing:Zone,
  {986c8b06-fc9d-4c43-aa26-cfb03fe57f53}, !- Handle
  {3f6bd996-9d81-495b-aa18-404059a003fb}, !- Zone or ZoneList Name
  SupplyAirTemperature,                   !- Zone Cooling Design Supply Air Temperature Input Method
  12.8,                                   !- Zone Cooling Design Supply Air Temperature {C}
  11.11,                                  !- Zone Cooling Design Supply Air Temperature Difference {deltaC}
  SupplyAirTemperature,                   !- Zone Heating Design Supply Air Temperature Input Method
  40,                                     !- Zone Heating Design Supply Air Temperature {C}
  11.11,                                  !- Zone Heating Design Supply Air Temperature Difference {deltaC}
  0.0085,                                 !- Zone Cooling Design Supply Air Humidity Ratio {kg-H2O/kg-air}
  0.008,                                  !- Zone Heating Design Supply Air Humidity Ratio {kg-H2O/kg-air}
  ,                                       !- Zone Heating Sizing Factor
  ,                                       !- Zone Cooling Sizing Factor
  DesignDayWithLimit,                     !- Cooling Design Air Flow Method
  0,                                      !- Cooling Design Air Flow Rate {m3/s}
  0.000762,                               !- Cooling Minimum Air Flow per Zone Floor Area {m3/s-m2}
  0.373782,                               !- Cooling Minimum Air Flow {m3/s}
  0.2,                                    !- Cooling Minimum Air Flow Fraction
  DesignDay,                              !- Heating Design Air Flow Method
  0,                                      !- Heating Design Air Flow Rate {m3/s}
  0.002032,                               !- Heating Maximum Air Flow per Zone Floor Area {m3/s-m2}
  0.1415762,                              !- Heating Maximum Air Flow {m3/s}
  0.3,                                    !- Heating Maximum Air Flow Fraction
  No,                                     !- Account for Dedicated Outdoor Air System
  NeutralSupplyAir,                       !- Dedicated Outdoor Air System Control Strategy
  autosize,                               !- Dedicated Outdoor Air Low Setpoint Temperature for Design {C}
  autosize;                               !- Dedicated Outdoor Air High Setpoint Temperature for Design {C}

OS:ZoneHVAC:EquipmentList,
  {abc2bb91-512b-438a-8394-79e439760e8f}, !- Handle
  Zone HVAC Equipment List 1,             !- Name
  {3f6bd996-9d81-495b-aa18-404059a003fb}; !- Thermal Zone

OS:Space,
  {e84c1de5-d2a1-4af9-95a5-ae9cf04f8b41}, !- Handle
  Floor 2 Exam 7 Space,                   !- Name
  {fed8edd6-092e-4a9b-8b16-cef6c5668aff}, !- Space Type Name
  ,                                       !- Default Construction Set Name
  ,                                       !- Default Schedule Set Name
  0,                                      !- Direction of Relative North {deg}
  38.1,                                   !- X Origin {m}
  28.3464,                                !- Y Origin {m}
  3.048,                                  !- Z Origin {m}
  ,                                       !- Building Story Name
  {3f6bd996-9d81-495b-aa18-404059a003fb}, !- Thermal Zone Name
  Yes,                                    !- Part of Total Floor Area
  {0d4ac8e8-b257-4c6f-871f-ceb15c969f84}; !- Design Specification Outdoor Air Object Name

OS:ThermostatSetpoint:DualSetpoint,
  {28a1e0b3-89ac-4f0d-aecf-d093b0fb0e40}, !- Handle
  Typical DualSPSched,                    !- Name
  ,                                       !- Heating Setpoint Temperature Schedule Name
  ,                                       !- Cooling Setpoint Temperature Schedule Name
  0;                                      !- Temperature Difference Between Cutout And Setpoint {deltaC}

OS:Schedule:Year,
  {4cfc17c0-6365-496f-b9c7-12281085114f}, !- Handle
  HTGSETP_SCH,                            !- Name
  {dc8b15ef-5b37-4711-8da1-3ca0fb2b307b}, !- Schedule Type Limits Name
  12,                                     !- Month 1
  31,                                     !- Day 1
  {a810834d-fe63-4e59-8ca1-338a801ed6c8}; !- Week Schedule Until Date 1

OS:ScheduleTypeLimits,
  {dc8b15ef-5b37-4711-8da1-3ca0fb2b307b}, !- Handle
  Temperature,                            !- Name
  -60,                                    !- Lower Limit Value
  200,                                    !- Upper Limit Value
  CONTINUOUS,                             !- Numeric Type
  Dimensionless;                          !- Unit Type

OS:Schedule:Week,
  {a810834d-fe63-4e59-8ca1-338a801ed6c8}, !- Handle
  HTGSETP_SCH_WeekProfile1,               !- Name
  ,                                       !- Schedule Rendering Name
  {fa29e3a2-cae0-4759-b471-93c64e21ce9f}, !- Sunday Schedule:Day Name
  {6dd21aa6-d747-4a7f-96e6-fc7dede784aa}, !- Monday Schedule:Day Name
  {6dd21aa6-d747-4a7f-96e6-fc7dede784aa}, !- Tuesday Schedule:Day Name
  {6dd21aa6-d747-4a7f-96e6-fc7dede784aa}, !- Wednesday Schedule:Day Name
  {6dd21aa6-d747-4a7f-96e6-fc7dede784aa}, !- Thursday Schedule:Day Name
  {6dd21aa6-d747-4a7f-96e6-fc7dede784aa}, !- Friday Schedule:Day Name
  {bab866cd-7ef8-4e74-aa08-2f550d712a0e}, !- Saturday Schedule:Day Name
  {fa29e3a2-cae0-4759-b471-93c64e21ce9f}, !- Holiday Schedule:Day Name
  {6dd21aa6-d747-4a7f-96e6-fc7dede784aa}, !- SummerDesignDay Schedule:Day Name
  {bab866cd-7ef8-4e74-aa08-2f550d712a0e}, !- WinterDesignDay Schedule:Day Name
  {fa29e3a2-cae0-4759-b471-93c64e21ce9f}, !- CustomDay1 Schedule:Day Name
  {fa29e3a2-cae0-4759-b471-93c64e21ce9f}; !- CustomDay2 Schedule:Day Name

OS:Schedule:Day,
  {fa29e3a2-cae0-4759-b471-93c64e21ce9f}, !- Handle
  HTGSETP_SCH_DayProfile3,                !- Name
  {2750d37c-c6a7-46f0-907e-e7bdf5879237}, !- Schedule Type Limits Name
  ,                                       !- Interpolate to Timestep
  24,                                     !- Hour 1
  0,                                      !- Minute 1
  18;                                     !- Value Until Time 1

OS:ScheduleTypeLimits,
  {2750d37c-c6a7-46f0-907e-e7bdf5879237}, !- Handle
  HTGSETP_SCH_DayProfile3_Limit,          !- Name
  -60,                                    !- Lower Limit Value
  200,                                    !- Upper Limit Value
  CONTINUOUS,                             !- Numeric Type
  Dimensionless;                          !- Unit Type

OS:Schedule:Day,
  {6dd21aa6-d747-4a7f-96e6-fc7dede784aa}, !- Handle
  HTGSETP_SCH_DayProfile1,                !- Name
  {3267f951-8095-4112-9b97-c131ad793138}, !- Schedule Type Limits Name
  ,                                       !- Interpolate to Timestep
  5,                                      !- Hour 1
  0,                                      !- Minute 1
  18,                                     !- Value Until Time 1
  18,                                     !- Hour 2
  0,                                      !- Minute 2
  21,                                     !- Value Until Time 2
  24,                                     !- Hour 3
  0,                                      !- Minute 3
  18;                                     !- Value Until Time 3

OS:ScheduleTypeLimits,
  {3267f951-8095-4112-9b97-c131ad793138}, !- Handle
  HTGSETP_SCH_DayProfile1_Limit,          !- Name
  -60,                                    !- Lower Limit Value
  200,                                    !- Upper Limit Value
  CONTINUOUS,                             !- Numeric Type
  Dimensionless;                          !- Unit Type

OS:Schedule:Day,
  {bab866cd-7ef8-4e74-aa08-2f550d712a0e}, !- Handle
  HTGSETP_SCH_DayProfile2,                !- Name
  {eb930d0c-d2f7-4a25-8e06-278b5285899d}, !- Schedule Type Limits Name
  ,                                       !- Interpolate to Timestep
  7,                                      !- Hour 1
  0,                                      !- Minute 1
  18,                                     !- Value Until Time 1
  15,                                     !- Hour 2
  0,                                      !- Minute 2
  21,                                     !- Value Until Time 2
  24,                                     !- Hour 3
  0,                                      !- Minute 3
  18;                                     !- Value Until Time 3

OS:ScheduleTypeLimits,
  {eb930d0c-d2f7-4a25-8e06-278b5285899d}, !- Handle
  HTGSETP_SCH_DayProfile2_Limit,          !- Name
  -60,                                    !- Lower Limit Value
  200,                                    !- Upper Limit Value
  CONTINUOUS,                             !- Numeric Type
  Dimensionless;                          !- Unit Type

OS:YearDescription,
  {2568b0db-e300-4d9f-9a00-b042570ab363}, !- Handle
  2022,                                   !- Calendar Year
  ,                                       !- Day of Week for Start Day
  ;                                       !- Is Leap Year

OS:Schedule:Year,
  {b0c04dfd-d20e-4a9e-82fe-adafb44eb6d4}, !- Handle
  CLGSETP_SCH,                            !- Name
  {dc8b15ef-5b37-4711-8da1-3ca0fb2b307b}, !- Schedule Type Limits Name
  12,                                     !- Month 1
  31,                                     !- Day 1
  {f57545ac-36d7-47a5-87cf-e9dc3323e40c}; !- Week Schedule Until Date 1

OS:Schedule:Week,
  {f57545ac-36d7-47a5-87cf-e9dc3323e40c}, !- Handle
  CLGSETP_SCH_WeekProfile1,               !- Name
  ,                                       !- Schedule Rendering Name
  {7ed94442-e899-4f90-81ea-8b03ae4d5328}, !- Sunday Schedule:Day Name
  {fde2ab38-4ab1-43d1-8e9a-ef79f7158680}, !- Monday Schedule:Day Name
  {fde2ab38-4ab1-43d1-8e9a-ef79f7158680}, !- Tuesday Schedule:Day Name
  {fde2ab38-4ab1-43d1-8e9a-ef79f7158680}, !- Wednesday Schedule:Day Name
  {fde2ab38-4ab1-43d1-8e9a-ef79f7158680}, !- Thursday Schedule:Day Name
  {fde2ab38-4ab1-43d1-8e9a-ef79f7158680}, !- Friday Schedule:Day Name
  {4bafb127-cd83-4731-be6e-2b2b5adba6f5}, !- Saturday Schedule:Day Name
  {7ed94442-e899-4f90-81ea-8b03ae4d5328}, !- Holiday Schedule:Day Name
  {fde2ab38-4ab1-43d1-8e9a-ef79f7158680}, !- SummerDesignDay Schedule:Day Name
  {4bafb127-cd83-4731-be6e-2b2b5adba6f5}, !- WinterDesignDay Schedule:Day Name
  {7ed94442-e899-4f90-81ea-8b03ae4d5328}, !- CustomDay1 Schedule:Day Name
  {7ed94442-e899-4f90-81ea-8b03ae4d5328}; !- CustomDay2 Schedule:Day Name

OS:Schedule:Day,
  {7ed94442-e899-4f90-81ea-8b03ae4d5328}, !- Handle
  CLGSETP_SCH_DayProfile3,                !- Name
  {26b2271d-a17c-4e40-b746-3cd044796d2f}, !- Schedule Type Limits Name
  ,                                       !- Interpolate to Timestep
  24,                                     !- Hour 1
  0,                                      !- Minute 1
  25;                                     !- Value Until Time 1

OS:ScheduleTypeLimits,
  {26b2271d-a17c-4e40-b746-3cd044796d2f}, !- Handle
  CLGSETP_SCH_DayProfile3_Limit,          !- Name
  -60,                                    !- Lower Limit Value
  200,                                    !- Upper Limit Value
  CONTINUOUS,                             !- Numeric Type
  Dimensionless;                          !- Unit Type

OS:Schedule:Day,
  {fde2ab38-4ab1-43d1-8e9a-ef79f7158680}, !- Handle
  CLGSETP_SCH_DayProfile1,                !- Name
  {616cfbe8-eac5-487c-94ab-8579e292a918}, !- Schedule Type Limits Name
  ,                                       !- Interpolate to Timestep
  5,                                      !- Hour 1
  0,                                      !- Minute 1
  25,                                     !- Value Until Time 1
  18,                                     !- Hour 2
  0,                                      !- Minute 2
  22,                                     !- Value Until Time 2
  24,                                     !- Hour 3
  0,                                      !- Minute 3
  25;                                     !- Value Until Time 3

OS:ScheduleTypeLimits,
  {616cfbe8-eac5-487c-94ab-8579e292a918}, !- Handle
  CLGSETP_SCH_DayProfile1_Limit,          !- Name
  -60,                                    !- Lower Limit Value
  200,                                    !- Upper Limit Value
  CONTINUOUS,                             !- Numeric Type
  Dimensionless;                          !- Unit Type

OS:Schedule:Day,
  {4bafb127-cd83-4731-be6e-2b2b5adba6f5}, !- Handle
  CLGSETP_SCH_DayProfile2,                !- Name
  {fb390436-608b-4793-af8c-c151ab7cf2dc}, !- Schedule Type Limits Name
  ,                                       !- Interpolate to Timestep
  7,                                      !- Hour 1
  0,                                      !- Minute 1
  25,                                     !- Value Until Time 1
  15,                                     !- Hour 2
  0,                                      !- Minute 2
  22,                                     !- Value Until Time 2
  24,                                     !- Hour 3
  0,                                      !- Minute 3
  25;                                     !- Value Until Time 3

OS:ScheduleTypeLimits,
  {fb390436-608b-4793-af8c-c151ab7cf2dc}, !- Handle
  CLGSETP_SCH_DayProfile2_Limit,          !- Name
  -60,                                    !- Lower Limit Value
  200,                                    !- Upper Limit Value
  CONTINUOUS,                             !- Numeric Type
  Dimensionless;                          !- Unit Type

OS:SizingPeriod:DesignDay,
  {a98c5a31-94c4-48f5-a238-ad5909a0e545}, !- Handle
  CHICAGO Ann Htg 99.6% Condns DB,        !- Name
  -20.6,                                  !- Maximum Dry-Bulb Temperature {C}
  0,                                      !- Daily Dry-Bulb Temperature Range {deltaC}
  99063,                                  !- Barometric Pressure {Pa}
  4.9,                                    !- Wind Speed {m/s}
  270,                                    !- Wind Direction {deg}
  0,                                      !- Sky Clearness
  No,                                     !- Rain Indicator
  No,                                     !- Snow Indicator
  21,                                     !- Day of Month
  1,                                      !- Month
  WinterDesignDay,                        !- Day Type
  No,                                     !- Daylight Saving Time Indicator
  Wetbulb,                                !- Humidity Condition Type
  ,                                       !- Humidity Condition Day Schedule Name
  -20.6,                                  !- Wetbulb or DewPoint at Maximum Dry-Bulb {C}
  ,                                       !- Humidity Ratio at Maximum Dry-Bulb {kgWater/kgDryAir}
  ,                                       !- Enthalpy at Maximum Dry-Bulb {J/kg}
  DefaultMultipliers,                     !- Dry-Bulb Temperature Range Modifier Type
  ,                                       !- Dry-Bulb Temperature Range Modifier Day Schedule Name
  ASHRAEClearSky;                         !- Solar Model Indicator

OS:SizingPeriod:DesignDay,
  {f0c3421a-ead0-4843-b8fb-29db0f1c7086}, !- Handle
  CHICAGO Ann Clg .4% Condns WB=>MDB,     !- Name
  31.2,                                   !- Maximum Dry-Bulb Temperature {C}
  10.7,                                   !- Daily Dry-Bulb Temperature Range {deltaC}
  99063,                                  !- Barometric Pressure {Pa}
  5.3,                                    !- Wind Speed {m/s}
  230,                                    !- Wind Direction {deg}
  1,                                      !- Sky Clearness
  No,                                     !- Rain Indicator
  No,                                     !- Snow Indicator
  21,                                     !- Day of Month
  7,                                      !- Month
  SummerDesignDay,                        !- Day Type
  No,                                     !- Daylight Saving Time Indicator
  Wetbulb,                                !- Humidity Condition Type
  ,                                       !- Humidity Condition Day Schedule Name
  25.5,                                   !- Wetbulb or DewPoint at Maximum Dry-Bulb {C}
  ,                                       !- Humidity Ratio at Maximum Dry-Bulb {kgWater/kgDryAir}
  ,                                       !- Enthalpy at Maximum Dry-Bulb {J/kg}
  DefaultMultipliers,                     !- Dry-Bulb Temperature Range Modifier Type
  ,                                       !- Dry-Bulb Temperature Range Modifier Day Schedule Name
  ASHRAEClearSky;                         !- Solar Model Indicator

OS:ElectricEquipment:Definition,
  {1b74f541-ae88-48a2-a3ff-808a0d9b36ef}, !- Handle
  Zone Group 11|Floor 3 Office Toilet_ZoneExhaustFans Definition, !- Name
  EquipmentLevel,                         !- Design Level Calculation Method
  15.7100591715976,                       !- Design Level {W}
  ,                                       !- Watts per Space Floor Area {W/m2}
  ,                                       !- Watts per Person {W/person}
  0,                                      !- Fraction Latent
  0,                                      !- Fraction Radiant
  1;                                      !- Fraction Lost

OS:ElectricEquipment,
  {489d7a01-0648-4181-833a-55b6188f3314}, !- Handle
  Zone Group 11|Floor 3 Office Toilet_ZoneExhaustFans, !- Name
  {1b74f541-ae88-48a2-a3ff-808a0d9b36ef}, !- Electric Equipment Definition Name
  {92c1c857-a034-40b1-8e58-da10087de13a}, !- Space or SpaceType Name
  {3177be28-ae64-4f2a-93f8-e65a6be1d23c}, !- Schedule Name
  ,                                       !- Multiplier
  Zone Exhaust Fans;                      !- End-Use Subcategory

OS:SpaceType,
  {92c1c857-a034-40b1-8e58-da10087de13a}, !- Handle
  Zone Group 11,                          !- Name
  ,                                       !- Default Construction Set Name
  ,                                       !- Default Schedule Set Name
  {ff5d2707-3379-488b-932f-1fd3dd9def1d}; !- Group Rendering Name

OS:ThermalZone,
  {c5061b42-f71f-4bda-8100-da1fe1ff8ff8}, !- Handle
  Floor 3 Office Toilet,                  !- Name
  1,                                      !- Multiplier
  2.90966131143052,                       !- Ceiling Height {m}
  14.1390306874255,                       !- Volume {m3}
  ,                                       !- Floor Area {m2}
  ,                                       !- Zone Inside Convection Algorithm
  ,                                       !- Zone Outside Convection Algorithm
  ,                                       !- Zone Conditioning Equipment List Name
  {218b2091-51e5-4ef8-8084-d3ce737d718a}, !- Zone Air Inlet Port List
  {06b701f4-146e-4a69-9b2c-98e3e45aa648}, !- Zone Air Exhaust Port List
  {5bfc61a9-c53a-413c-a553-7db734e35b7d}, !- Zone Air Node Name
  {0eeb3fa0-59b9-43b5-a441-fe5bdf5ed73d}, !- Zone Return Air Port List
  ,                                       !- Primary Daylighting Control Name
  ,                                       !- Fraction of Zone Controlled by Primary Daylighting Control
  ,                                       !- Secondary Daylighting Control Name
  ,                                       !- Fraction of Zone Controlled by Secondary Daylighting Control
  ,                                       !- Illuminance Map Name
  {2ca69ea5-4228-4fb0-ab35-79945dfe180f}, !- Group Rendering Name
  ,                                       !- Thermostat Name
  No;                                     !- Use Ideal Air Loads

OS:Node,
  {74ce22df-f0a6-49b2-a503-298f79582671}, !- Handle
  Node 2,                                 !- Name
  {5bfc61a9-c53a-413c-a553-7db734e35b7d}, !- Inlet Port
  ;                                       !- Outlet Port

OS:Connection,
  {5bfc61a9-c53a-413c-a553-7db734e35b7d}, !- Handle
  {c5061b42-f71f-4bda-8100-da1fe1ff8ff8}, !- Source Object
  11,                                     !- Outlet Port
  {74ce22df-f0a6-49b2-a503-298f79582671}, !- Target Object
  2;                                      !- Inlet Port

OS:PortList,
  {218b2091-51e5-4ef8-8084-d3ce737d718a}, !- Handle
  {c5061b42-f71f-4bda-8100-da1fe1ff8ff8}; !- HVAC Component

OS:PortList,
  {06b701f4-146e-4a69-9b2c-98e3e45aa648}, !- Handle
  {c5061b42-f71f-4bda-8100-da1fe1ff8ff8}; !- HVAC Component

OS:PortList,
  {0eeb3fa0-59b9-43b5-a441-fe5bdf5ed73d}, !- Handle
  {c5061b42-f71f-4bda-8100-da1fe1ff8ff8}; !- HVAC Component

OS:Sizing:Zone,
  {2fbb5929-530d-4087-aa6e-24cd6676a245}, !- Handle
  {c5061b42-f71f-4bda-8100-da1fe1ff8ff8}, !- Zone or ZoneList Name
  SupplyAirTemperature,                   !- Zone Cooling Design Supply Air Temperature Input Method
  14,                                     !- Zone Cooling Design Supply Air Temperature {C}
  11.11,                                  !- Zone Cooling Design Supply Air Temperature Difference {deltaC}
  SupplyAirTemperature,                   !- Zone Heating Design Supply Air Temperature Input Method
  40,                                     !- Zone Heating Design Supply Air Temperature {C}
  11.11,                                  !- Zone Heating Design Supply Air Temperature Difference {deltaC}
  0.0085,                                 !- Zone Cooling Design Supply Air Humidity Ratio {kg-H2O/kg-air}
  0.008,                                  !- Zone Heating Design Supply Air Humidity Ratio {kg-H2O/kg-air}
  ,                                       !- Zone Heating Sizing Factor
  ,                                       !- Zone Cooling Sizing Factor
  DesignDay,                              !- Cooling Design Air Flow Method
  ,                                       !- Cooling Design Air Flow Rate {m3/s}
  ,                                       !- Cooling Minimum Air Flow per Zone Floor Area {m3/s-m2}
  ,                                       !- Cooling Minimum Air Flow {m3/s}
  ,                                       !- Cooling Minimum Air Flow Fraction
  DesignDay,                              !- Heating Design Air Flow Method
  ,                                       !- Heating Design Air Flow Rate {m3/s}
  ,                                       !- Heating Maximum Air Flow per Zone Floor Area {m3/s-m2}
  ,                                       !- Heating Maximum Air Flow {m3/s}
  ,                                       !- Heating Maximum Air Flow Fraction
  No,                                     !- Account for Dedicated Outdoor Air System
  NeutralSupplyAir,                       !- Dedicated Outdoor Air System Control Strategy
  autosize,                               !- Dedicated Outdoor Air Low Setpoint Temperature for Design {C}
  autosize;                               !- Dedicated Outdoor Air High Setpoint Temperature for Design {C}

OS:ZoneHVAC:EquipmentList,
  {9ea8c547-c634-42b7-9ff4-f206c2c8fd67}, !- Handle
  Zone HVAC Equipment List 2,             !- Name
  {c5061b42-f71f-4bda-8100-da1fe1ff8ff8}; !- Thermal Zone

OS:Space,
  {dff7e495-d01f-47cc-9537-3f653a7e6f3d}, !- Handle
  Floor 3 Office Toilet Space,            !- Name
  {92c1c857-a034-40b1-8e58-da10087de13a}, !- Space Type Name
  ,                                       !- Default Construction Set Name
  ,                                       !- Default Schedule Set Name
  0,                                      !- Direction of Relative North {deg}
  0,                                      !- X Origin {m}
  24.384,                                 !- Y Origin {m}
  6.096,                                  !- Z Origin {m}
  ,                                       !- Building Story Name
  {c5061b42-f71f-4bda-8100-da1fe1ff8ff8}, !- Thermal Zone Name
  Yes;                                    !- Part of Total Floor Area

OS:Schedule:Year,