
OS:Version,
  {73496e36-081b-4b68-99ca-29293a81ac65}, !- Handle
  3.3.0;                                  !- Version Identifier

OS:Site,
  {6d2fc90b-33f9-46fc-870a-e72873e4b04c}, !- Handle
  USA_IL_Chicago Ohare Intl Ap,           !- Name
  41.98,                                  !- Latitude {deg}
  -87.92,                                 !- Longitude {deg}
  -6,                                     !- Time Zone {hr}
  201,                                    !- Elevation {m}
  City;                                   !- Terrain

OS:SimulationControl,
  {80935aee-783a-48ea-83ba-8736bf8196ef}, !- Handle
  Yes,                                    !- Do Zone Sizing Calculation
  Yes,                                    !- Do System Sizing Calculation
  Yes,                                    !- Do Plant Sizing Calculation
  Yes,                                    !- Run Simulation for Sizing Periods
  Yes,                                    !- Run Simulation for Weather File Run Periods
  0.04,                                   !- Loads Convergence Tolerance Value {W}
  0.2,                                    !- Temperature Convergence Tolerance Value {deltaC}
  FullInteriorAndExterior,                !- Solar Distribution
  25,                                     !- Maximum Number of Warmup Days
  6,                                      !- Minimum Number of Warmup Days
  No,                                     !- Do HVAC Sizing Simulation for Sizing Periods
  1;                                      !- Maximum Number of HVAC Sizing Simulation Passes

OS:SizingPeriod:DesignDay,
  {ca997411-81d0-4a2c-baff-78441da48d85}, !- Handle
  CHICAGO Ann Htg 99.6% Condns DB,        !- Name
  -20.6,                                  !- Maximum Dry-Bulb Temperature {C}
  0,                                      !- Daily Dry-Bulb Temperature Range {deltaC}
  99063,                                  !- Barometric Pressure {Pa}
  4.9,                                    !- Wind Speed {m/s}
  270,                                    !- Wind Direction {deg}
  0,                                      !- Sky Clearness
  No,                                     !- Rain Indicator
  No,                                     !- Snow Indicator
  21,                                     !- Day of Month
  1,                                      !- Month
  WinterDesignDay,                        !- Day Type
  No,                                     !- Daylight Saving Time Indicator
  Wetbulb,                                !- Humidity Condition Type
  ,                                       !- Humidity Condition Day Schedule Name
  -20.6,                                  !- Wetbulb or DewPoint at Maximum Dry-Bulb {C}
  ,                                       !- Humidity Ratio at Maximum Dry-Bulb {kgWater/kgDryAir}
  ,                                       !- Enthalpy at Maximum Dry-Bulb {J/kg}
  DefaultMultipliers,                     !- Dry-Bulb Temperature Range Modifier Type
  ,                                       !- Dry-Bulb Temperature Range Modifier Day Schedule Name
  ASHRAEClearSky;                         !- Solar Model Indicator

OS:SizingPeriod:DesignDay,
  {dc9de972-3ef3-4bdf-8d2b-9323c521e14b}, !- Handle
  CHICAGO Ann Clg .4% Condns WB=>MDB,     !- Name
  31.2,                                   !- Maximum Dry-Bulb Temperature {C}
  10.7,                                   !- Daily Dry-Bulb Temperature Range {deltaC}
  99063,                                  !- Barometric Pressure {Pa}
  5.3,                                    !- Wind Speed {m/s}
  230,                                    !- Wind Direction {deg}
  1,                                      !- Sky Clearness
  No,                                     !- Rain Indicator
  No,                                     !- Snow Indicator
  21,                                     !- Day of Month
  7,                                      !- Month
  SummerDesignDay,                        !- Day Type
  No,                                     !- Daylight Saving Time Indicator
  Wetbulb,                                !- Humidity Condition Type
  ,                                       !- Humidity Condition Day Schedule Name
  25.5,                                   !- Wetbulb or DewPoint at Maximum Dry-Bulb {C}
  ,                                       !- Humidity Ratio at Maximum Dry-Bulb {kgWater/kgDryAir}
  ,                                       !- Enthalpy at Maximum Dry-Bulb {J/kg}
  DefaultMultipliers,                     !- Dry-Bulb Temperature Range Modifier Type
  ,                                       !- Dry-Bulb Temperature Range Modifier Day Schedule Name
  ASHRAEClearSky;                         !- Solar Model Indicator

OS:Surface,
  {6b7dfe48-6aaf-4d85-9aa2-c89bf741de86}, !- Handle
  NurseSat_Lobby_Flr_3_Ceiling,           !- Name
  RoofCeiling,                            !- Surface Type
  {24535bfd-7953-486b-8f0d-2861621bbef6}, !- Construction Name
  {f9c187fd-e314-4a55-ae02-98875bcd7425}, !- Space Name
  Adiabatic,                              !- Outside Boundary Condition
  ,                                       !- Outside Boundary Condition Object
  NoSun,                                  !- Sun Exposure
  NoWind,                                 !- Wind Exposure
  ,                                       !- View Factor to Ground
  ,                                       !- Number of Vertices
  60.96, 10.668, 12.8049,                 !- X,Y,Z Vertex 1 {m}
  60.96, 19.812, 12.8049,                 !- X,Y,Z Vertex 2 {m}
  39.624, 19.812, 12.8049,                !- X,Y,Z Vertex 3 {m}
  39.624, 42.672, 12.8049,                !- X,Y,Z Vertex 4 {m}
  9.144, 42.672, 12.8049,                 !- X,Y,Z Vertex 5 {m}
  9.144, 33.528, 12.8049,                 !- X,Y,Z Vertex 6 {m}
  15.24, 33.528, 12.8049,                 !- X,Y,Z Vertex 7 {m}
  15.24, 19.812, 12.8049,                 !- X,Y,Z Vertex 8 {m}
  28.956, 19.812, 12.8049,                !- X,Y,Z Vertex 9 {m}
  28.956, 10.668, 12.8049;                !- X,Y,Z Vertex 10 {m}

OS:Construction,
  {24535bfd-7953-486b-8f0d-2861621bbef6}, !- Handle
  INT-FLOOR-UNDERSIDE,                    !- Name
  {dda36a1a-4b09-4a00-952d-c45f41faea5b}, !- Surface Rendering Name
  {d13097bf-1fee-4f29-afab-af370bb43c26}, !- Layer 1
  {7ca280e9-c169-4185-b8ec-47442d3d1c1e}; !- Layer 2

OS:Material:NoMass,
  {d13097bf-1fee-4f29-afab-af370bb43c26}, !- Handle
  CP02 CARPET PAD [3.937 in][10 cm],      !- Name
  VeryRough,                              !- Roughness
  0.2165,                                 !- Thermal Resistance {m2-K/W}
  0.9,                                    !- Thermal Absorptance
  0.7,                                    !- Solar Absorptance
  0.8;                                    !- Visible Absorptance

OS:Material,
  {7ca280e9-c169-4185-b8ec-47442d3d1c1e}, !- Handle
  MAT-CC05 4 HW CONCRETE [4 in][10.16 cm], !- Name
  Rough,                                  !- Roughness
  0.1016,                                 !- Thickness {m}
  1.311,                                  !- Conductivity {W/m-K}
  2240,                                   !- Density {kg/m3}
  836.8,                                  !- Specific Heat {J/kg-K}
  0.9,                                    !- Thermal Absorptance
  0.7,                                    !- Solar Absorptance
  0.7;                                    !- Visible Absorptance

OS:ThermalZone,
  {bb519cc9-a21a-4284-afd0-f141e47aacae}, !- Handle
  NurseStn_Lobby_Flr_3,                   !- Name
  1,                                      !- Multiplier
  4.0667,                                 !- Ceiling Height {m}
  3662.7547540672,                        !- Volume {m3}
  ,                                       !- Floor Area {m2}
  ,                                       !- Zone Inside Convection Algorithm
  ,                                       !- Zone Outside Convection Algorithm
  ,                                       !- Zone Conditioning Equipment List Name
  {47fa8f87-a064-49e9-87d8-1835bd763390}, !- Zone Air Inlet Port List
  {494c49e5-751b-4b67-847f-36eab94ed9df}, !- Zone Air Exhaust Port List
  {8cc6c5bb-ef5d-43d5-9b83-e01fa2d154f8}, !- Zone Air Node Name
  {d893e4c7-be10-4f55-94c1-7569b19204f6}, !- Zone Return Air Port List
  ,                                       !- Primary Daylighting Control Name
  ,                                       !- Fraction of Zone Controlled by Primary Daylighting Control
  ,                                       !- Secondary Daylighting Control Name
  ,                                       !- Fraction of Zone Controlled by Secondary Daylighting Control
  ,                                       !- Illuminance Map Name
  {b51b977d-0cd6-4fbe-8696-a6fa780d4c40}, !- Group Rendering Name
  {8f7c376a-d93c-472e-b548-a4faf7abf2fe}, !- Thermostat Name
  No;                                     !- Use Ideal Air Loads

OS:Node,
  {9d31d6c1-dd3d-47a9-b066-aa94358295f9}, !- Handle
  Node 1,                                 !- Name
  {8cc6c5bb-ef5d-43d5-9b83-e01fa2d154f8}, !- Inlet Port
  ;                                       !- Outlet Port

OS:Connection,
  {8cc6c5bb-ef5d-43d5-9b83-e01fa2d154f8}, !- Handle
  {bb519cc9-a21a-4284-afd0-f141e47aacae}, !- Source Object
  11,                                     !- Outlet Port
  {9d31d6c1-dd3d-47a9-b066-aa94358295f9}, !- Target Object
  2;                                      !- Inlet Port

OS:PortList,
  {47fa8f87-a064-49e9-87d8-1835bd763390}, !- Handle
  {bb519cc9-a21a-4284-afd0-f141e47aacae}; !- HVAC Component

OS:PortList,
  {494c49e5-751b-4b67-847f-36eab94ed9df}, !- Handle
  {bb519cc9-a21a-4284-afd0-f141e47aacae}; !- HVAC Component

OS:PortList,
  {d893e4c7-be10-4f55-94c1-7569b19204f6}, !- Handle
  {bb519cc9-a21a-4284-afd0-f141e47aacae}; !- HVAC Component

OS:Sizing:Zone,
  {4184145f-59fb-47ab-85eb-88ca00101fe3}, !- Handle
  {bb519cc9-a21a-4284-afd0-f141e47aacae}, !- Zone or ZoneList Name
  SupplyAirTemperature,                   !- Zone Cooling Design Supply Air Temperature Input Method
  11.1,                                   !- Zone Cooling Design Supply Air Temperature {C}
  11.11,                                  !- Zone Cooling Design Supply Air Temperature Difference {deltaC}
  SupplyAirTemperature,                   !- Zone Heating Design Supply Air Temperature Input Method
  50,                                     !- Zone Heating Design Supply Air Temperature {C}
  11.11,                                  !- Zone Heating Design Supply Air Temperature Difference {deltaC}
  0.0085,                                 !- Zone Cooling Design Supply Air Humidity Ratio {kg-H2O/kg-air}
  0.008,                                  !- Zone Heating Design Supply Air Humidity Ratio {kg-H2O/kg-air}
  ,                                       !- Zone Heating Sizing Factor
  ,                                       !- Zone Cooling Sizing Factor
  DesignDay,                              !- Cooling Design Air Flow Method
  0,                                      !- Cooling Design Air Flow Rate {m3/s}
  0.000762,                               !- Cooling Minimum Air Flow per Zone Floor Area {m3/s-m2}
  0,                                      !- Cooling Minimum Air Flow {m3/s}
  0.2,                                    !- Cooling Minimum Air Flow Fraction
  DesignDay,                              !- Heating Design Air Flow Method
  0,                                      !- Heating Design Air Flow Rate {m3/s}
  0.002032,                               !- Heating Maximum Air Flow per Zone Floor Area {m3/s-m2}
  0.1415762,                              !- Heating Maximum Air Flow {m3/s}
  0.3,                                    !- Heating Maximum Air Flow Fraction
  No,                                     !- Account for Dedicated Outdoor Air System
  NeutralSupplyAir,                       !- Dedicated Outdoor Air System Control Strategy
  autosize,                               !- Dedicated Outdoor Air Low Setpoint Temperature for Design {C}
  autosize;                               !- Dedicated Outdoor Air High Setpoint Temperature for Design {C}

OS:ZoneHVAC:EquipmentList,
  {ba40b6d7-9cc2-45c1-92b3-64b0530cf5e6}, !- Handle
  Zone HVAC Equipment List 1,             !- Name
  {bb519cc9-a21a-4284-afd0-f141e47aacae}; !- Thermal Zone

OS:Space,
  {f9c187fd-e314-4a55-ae02-98875bcd7425}, !- Handle
  NurseStn_Lobby_Flr_3 Space,             !- Name
  {42e8658c-81ea-4583-8874-a4e11751212c}, !- Space Type Name
  ,                                       !- Default Construction Set Name
  ,                                       !- Default Schedule Set Name
  0,                                      !- Direction of Relative North {deg}
  0,                                      !- X Origin {m}
  0,                                      !- Y Origin {m}
  0,                                      !- Z Origin {m}
  ,                                       !- Building Story Name
  {bb519cc9-a21a-4284-afd0-f141e47aacae}, !- Thermal Zone Name
  Yes,                                    !- Part of Total Floor Area
  {1a1eb298-7f62-4ad9-a24c-0f3b0336404b}; !- Design Specification Outdoor Air Object Name

OS:ThermostatSetpoint:DualSetpoint,
  {8f7c376a-d93c-472e-b548-a4faf7abf2fe}, !- Handle
  NurseStn_Lobby_Flr_3 DualSPSched,       !- Name
  ,                                       !- Heating Setpoint Temperature Schedule Name
  ,                                       !- Cooling Setpoint Temperature Schedule Name
  0;                                      !- Temperature Difference Between Cutout And Setpoint {deltaC}

OS:Schedule:Year,
  {fdf4b9c7-1d70-40d3-9f21-65e77f2435a5}, !- Handle
  ADMIN_HTGSETP_SCH,                      !- Name
  {61696b34-5016-4141-b7d1-dfbca3fe0574}, !- Schedule Type Limits Name
  12,                                     !- Month 1
  31,                                     !- Day 1
  {21aeba26-6d78-468c-b7d2-98ecec6594b3}; !- Week Schedule Until Date 1

OS:ScheduleTypeLimits,
  {61696b34-5016-4141-b7d1-dfbca3fe0574}, !- Handle
  Temperature,                            !- Name
  -60,                                    !- Lower Limit Value
  200,                                    !- Upper Limit Value
  CONTINUOUS,                             !- Numeric Type
  Dimensionless;                          !- Unit Type

OS:Schedule:Week,
  {21aeba26-6d78-468c-b7d2-98ecec6594b3}, !- Handle
  ADMIN_HTGSETP_SCH_WeekProfile1,         !- Name
  ,                                       !- Schedule Rendering Name
  {1fd59e69-32d0-47f7-8a67-179e5b05df58}, !- Sunday Schedule:Day Name
  {fca7b831-e44c-4389-b82d-1c8248bac638}, !- Monday Schedule:Day Name
  {fca7b831-e44c-4389-b82d-1c8248bac638}, !- Tuesday Schedule:Day Name
  {fca7b831-e44c-4389-b82d-1c8248bac638}, !- Wednesday Schedule:Day Name
  {fca7b831-e44c-4389-b82d-1c8248bac638}, !- Thursday Schedule:Day Name
  {fca7b831-e44c-4389-b82d-1c8248bac638}, !- Friday Schedule:Day Name
  {29ad0449-3321-4d1e-8b8c-d92ede128908}, !- Saturday Schedule:Day Name
  {1fd59e69-32d0-47f7-8a67-179e5b05df58}, !- Holiday Schedule:Day Name
  {3bb045bc-b3aa-4f3d-8159-14585dc4f022}, !- SummerDesignDay Schedule:Day Name
  {a2e073c2-b7e8-4508-b820-716aeed5471d}, !- WinterDesignDay Schedule:Day Name
  {1fd59e69-32d0-47f7-8a67-179e5b05df58}, !- CustomDay1 Schedule:Day Name
  {1fd59e69-32d0-47f7-8a67-179e5b05df58}; !- CustomDay2 Schedule:Day Name

OS:Schedule:Day,
  {1fd59e69-32d0-47f7-8a67-179e5b05df58}, !- Handle
  ADMIN_HTGSETP_SCH_DayProfile5,          !- Name
  {730af537-260d-48fc-a67a-e446dd0da4d1}, !- Schedule Type Limits Name
  ,                                       !- Interpolate to Timestep
  24,                                     !- Hour 1
  0,                                      !- Minute 1
  18;                                     !- Value Until Time 1

OS:ScheduleTypeLimits,
  {730af537-260d-48fc-a67a-e446dd0da4d1}, !- Handle
  ADMIN_HTGSETP_SCH_DayProfile5_Limit,    !- Name
  -60,                                    !- Lower Limit Value
  200,                                    !- Upper Limit Value
  CONTINUOUS,                             !- Numeric Type
  Dimensionless;                          !- Unit Type

OS:Schedule:Day,
  {fca7b831-e44c-4389-b82d-1c8248bac638}, !- Handle
  ADMIN_HTGSETP_SCH_DayProfile1,          !- Name
  {af7c73cd-e32a-4aea-ac8b-d5f5a1d73f57}, !- Schedule Type Limits Name
  ,                                       !- Interpolate to Timestep
  5,                                      !- Hour 1
  0,                                      !- Minute 1
  18,                                     !- Value Until Time 1
  18,                                     !- Hour 2
  0,                                      !- Minute 2
  21,                                     !- Value Until Time 2
  24,                                     !- Hour 3
  0,                                      !- Minute 3
  18;                                     !- Value Until Time 3

OS:ScheduleTypeLimits,
  {af7c73cd-e32a-4aea-ac8b-d5f5a1d73f57}, !- Handle
  ADMIN_HTGSETP_SCH_DayProfile1_Limit,    !- Name
  -60,                                    !- Lower Limit Value
  200,                                    !- Upper Limit Value
  CONTINUOUS,                             !- Numeric Type
  Dimensionless;                          !- Unit Type

OS:Schedule:Day,
  {29ad0449-3321-4d1e-8b8c-d92ede128908}, !- Handle
  ADMIN_HTGSETP_SCH_DayProfile4,          !- Name
  {7e4d8817-d7bb-42b9-8709-69d77587c9e6}, !- Schedule Type Limits Name
  ,                                       !- Interpolate to Timestep
  7,                                      !- Hour 1
  0,                                      !- Minute 1
  18,                                     !- Value Until Time 1
  15,                                     !- Hour 2
  0,                                      !- Minute 2
  21,                                     !- Value Until Time 2
  24,                                     !- Hour 3
  0,                                      !- Minute 3
  18;                                     !- Value Until Time 3

OS:ScheduleTypeLimits,
  {7e4d8817-d7bb-42b9-8709-69d77587c9e6}, !- Handle
  ADMIN_HTGSETP_SCH_DayProfile4_Limit,    !- Name
  -60,                                    !- Lower Limit Value
  200,                                    !- Upper Limit Value
  CONTINUOUS,                             !- Numeric Type
  Dimensionless;                          !- Unit Type

OS:Schedule:Day,
  {3bb045bc-b3aa-4f3d-8159-14585dc4f022}, !- Handle
  ADMIN_HTGSETP_SCH_DayProfile2,          !- Name
  {4b14ed2f-202b-4759-b940-673bb490671f}, !- Schedule Type Limits Name
  ,                                       !- Interpolate to Timestep
  5,                                      !- Hour 1
  0,                                      !- Minute 1
  18,                                     !- Value Until Time 1
  18,                                     !- Hour 2
  0,                                      !- Minute 2
  21,                                     !- Value Until Time 2
  24,                                     !- Hour 3
  0,                                      !- Minute 3
  18;                                     !- Value Until Time 3

OS:ScheduleTypeLimits,
  {4b14ed2f-202b-4759-b940-673bb490671f}, !- Handle
  ADMIN_HTGSETP_SCH_DayProfile2_Limit,    !- Name
  -60,                                    !- Lower Limit Value
  200,                                    !- Upper Limit Value
  CONTINUOUS,                             !- Numeric Type
  Dimensionless;                          !- Unit Type

OS:Schedule:Day,
  {a2e073c2-b7e8-4508-b820-716aeed5471d}, !- Handle
  ADMIN_HTGSETP_SCH_DayProfile3,          !- Name
  {0a7a8a26-ad3b-4475-8208-621858f3ca12}, !- Schedule Type Limits Name
  ,                                       !- Interpolate to Timestep
  7,                                      !- Hour 1
  0,                                      !- Minute 1
  18,                                     !- Value Until Time 1
  15,                                     !- Hour 2
  0,                                      !- Minute 2
  21,                                     !- Value Until Time 2
  24,                                     !- Hour 3
  0,                                      !- Minute 3
  18;                                     !- Value Until Time 3

OS:ScheduleTypeLimits,
  {0a7a8a26-ad3b-4475-8208-621858f3ca12}, !- Handle
  ADMIN_HTGSETP_SCH_DayProfile3_Limit,    !- Name
  -60,                                    !- Lower Limit Value
  200,                                    !- Upper Limit Value
  CONTINUOUS,                             !- Numeric Type
  Dimensionless;                          !- Unit Type

OS:YearDescription,
  {ed9f4db3-6ce7-4027-9b27-ea8c58e05210}, !- Handle
  2022,                                   !- Calendar Year
  ,                                       !- Day of Week for Start Day
  ;                                       !- Is Leap Year

OS:Schedule:Year,
  {844e2da7-3d21-46e0-86e2-7d21fd2bd2a0}, !- Handle
  ADMIN_CLGSETP_SCH,                      !- Name
  {61696b34-5016-4141-b7d1-dfbca3fe0574}, !- Schedule Type Limits Name
  12,                                     !- Month 1
  31,                                     !- Day 1
  {c8b77080-4794-4ecf-a5dd-6d71aebe60ea}; !- Week Schedule Until Date 1

OS:Schedule:Week,
  {c8b77080-4794-4ecf-a5dd-6d71aebe60ea}, !- Handle
  ADMIN_CLGSETP_SCH_WeekProfile1,         !- Name
  ,                                       !- Schedule Rendering Name
  {3b8706eb-90f4-4be6-8602-8d5dbe6e1559}, !- Sunday Schedule:Day Name
  {b1d727d6-c520-41bd-b14d-542e234dd0d9}, !- Monday Schedule:Day Name
  {b1d727d6-c520-41bd-b14d-542e234dd0d9}, !- Tuesday Schedule:Day Name
  {b1d727d6-c520-41bd-b14d-542e234dd0d9}, !- Wednesday Schedule:Day Name
  {b1d727d6-c520-41bd-b14d-542e234dd0d9}, !- Thursday Schedule:Day Name
  {b1d727d6-c520-41bd-b14d-542e234dd0d9}, !- Friday Schedule:Day Name
  {52a0fc43-2b0d-4812-8275-96d04ccedf81}, !- Saturday Schedule:Day Name
  {3b8706eb-90f4-4be6-8602-8d5dbe6e1559}, !- Holiday Schedule:Day Name
  {a1b54251-2950-48f7-9617-2322d0500cfb}, !- SummerDesignDay Schedule:Day Name
  {4fc0d16b-31b8-4a2e-b83f-eea914814eb2}, !- WinterDesignDay Schedule:Day Name
  {3b8706eb-90f4-4be6-8602-8d5dbe6e1559}, !- CustomDay1 Schedule:Day Name
  {3b8706eb-90f4-4be6-8602-8d5dbe6e1559}; !- CustomDay2 Schedule:Day Name

OS:Schedule:Day,
  {3b8706eb-90f4-4be6-8602-8d5dbe6e1559}, !- Handle
  ADMIN_CLGSETP_SCH_DayProfile5,          !- Name
  {412940d6-2314-4666-8cf6-70d420a80eea}, !- Schedule Type Limits Name
  ,                                       !- Interpolate to Timestep
  24,                                     !- Hour 1
  0,                                      !- Minute 1
  25;                                     !- Value Until Time 1

OS:ScheduleTypeLimits,
  {412940d6-2314-4666-8cf6-70d420a80eea}, !- Handle
  ADMIN_CLGSETP_SCH_DayProfile5_Limit,    !- Name
  -60,                                    !- Lower Limit Value
  200,                                    !- Upper Limit Value
  CONTINUOUS,                             !- Numeric Type
  Dimensionless;                          !- Unit Type

OS:Schedule:Day,
  {b1d727d6-c520-41bd-b14d-542e234dd0d9}, !- Handle
  ADMIN_CLGSETP_SCH_DayProfile1,          !- Name
  {01a59e09-6b1b-43ab-a62f-326683441318}, !- Schedule Type Limits Name
  ,                                       !- Interpolate to Timestep
  5,                                      !- Hour 1
  0,                                      !- Minute 1
  25,                                     !- Value Until Time 1
  18,                                     !- Hour 2
  0,                                      !- Minute 2
  22,                                     !- Value Until Time 2
  24,                                     !- Hour 3
  0,                                      !- Minute 3
  25;                                     !- Value Until Time 3

OS:ScheduleTypeLimits,
  {01a59e09-6b1b-43ab-a62f-326683441318}, !- Handle
  ADMIN_CLGSETP_SCH_DayProfile1_Limit,    !- Name
  -60,                                    !- Lower Limit Value
  200,                                    !- Upper Limit Value
  CONTINUOUS,                             !- Numeric Type
  Dimensionless;                          !- Unit Type

OS:Schedule:Day,
  {52a0fc43-2b0d-4812-8275-96d04ccedf81}, !- Handle
  ADMIN_CLGSETP_SCH_DayProfile4,          !- Name
  {e20d7398-f900-4172-9d3d-fe5b571c5d96}, !- Schedule Type Limits Name
  ,                                       !- Interpolate to Timestep
  7,                                      !- Hour 1
  0,                                      !- Minute 1
  25,                                     !- Value Until Time 1
  15,                                     !- Hour 2
  0,                                      !- Minute 2
  22,                                     !- Value Until Time 2
  24,                                     !- Hour 3
  0,                                      !- Minute 3
  25;                                     !- Value Until Time 3

OS:ScheduleTypeLimits,
  {e20d7398-f900-4172-9d3d-fe5b571c5d96}, !- Handle
  ADMIN_CLGSETP_SCH_DayProfile4_Limit,    !- Name
  -60,                                    !- Lower Limit Value
  200,                                    !- Upper Limit Value
  CONTINUOUS,                             !- Numeric Type
  Dimensionless;                          !- Unit Type

OS:Schedule:Day,
  {a1b54251-2950-48f7-9617-2322d0500cfb}, !- Handle
  ADMIN_CLGSETP_SCH_DayProfile2,          !- Name
  {c4f8d93a-c0ce-42df-8bdb-c741bc6ccef2}, !- Schedule Type Limits Name
  ,                                       !- Interpolate to Timestep
  5,                                      !- Hour 1
  0,                                      !- Minute 1
  25,                                     !- Value Until Time 1
  18,                                     !- Hour 2
  0,                                      !- Minute 2
  22,                                     !- Value Until Time 2
  24,                                     !- Hour 3
  0,                                      !- Minute 3
  25;                                     !- Value Until Time 3

OS:ScheduleTypeLimits,
  {c4f8d93a-c0ce-42df-8bdb-c741bc6ccef2}, !- Handle
  ADMIN_CLGSETP_SCH_DayProfile2_Limit,    !- Name
  -60,                                    !- Lower Limit Value
  200,                                    !- Upper Limit Value
  CONTINUOUS,                             !- Numeric Type
  Dimensionless;                          !- Unit Type

OS:Schedule:Day,
  {4fc0d16b-31b8-4a2e-b83f-eea914814eb2}, !- Handle
  ADMIN_CLGSETP_SCH_DayProfile3,          !- Name
  {1f2d8495-571e-4c57-8052-f326b6fc44b5}, !- Schedule Type Limits Name
  ,                                       !- Interpolate to Timestep
  7,                                      !- Hour 1
  0,                                      !- Minute 1
  25,                                     !- Value Until Time 1
  15,                                     !- Hour 2
  0,                                      !- Minute 2
  22,                                     !- Value Until Time 2
  24,                                     !- Hour 3
  0,                                      !- Minute 3
  25;                                     !- Value Until Time 3

OS:ScheduleTypeLimits,
  {1f2d8495-571e-4c57-8052-f326b6fc44b5}, !- Handle
  ADMIN_CLGSETP_SCH_DayProfile3_Limit,    !- Name
  -60,                                    !- Lower Limit Value
  200,                                    !- Upper Limit Value
  CONTINUOUS,                             !- Numeric Type
  Dimensionless;                          !- Unit Type

OS:Building,
  {73f0756d-b318-45ee-a753-f13198c65bdb}, !- Handle
  Ref Bldg Hospital New2004_v1.3_5.0 (A), !- Name
  ,                                       !- Building Sector Type
  0,                                      !- North Axis {deg}
  ,                                       !- Nominal Floor to Floor Height {m}
  ,                                       !- Space Type Name
  ,                                       !- Default Construction Set Name
  ;                                       !- Default Schedule Set Name

OS:ShadingSurface,
  {032f62c6-ca0a-47bd-be01-47b2c3e1581d}, !- Handle
  Canopy,                                 !- Name
  ,                                       !- Construction Name
  {acef7336-7af1-4fad-93fe-bf0380f5ef3c}, !- Shading Surface Group Name
  ,                                       !- Transmittance Schedule Name
  ,                                       !- Number of Vertices
  79.248, 22.098, 4.2683,                 !- X,Y,Z Vertex 1 {m}
  79.248, 31.242, 4.2683,                 !- X,Y,Z Vertex 2 {m}
  70.104, 31.242, 4.2683,                 !- X,Y,Z Vertex 3 {m}
  70.104, 22.098, 4.2683;                 !- X,Y,Z Vertex 4 {m}

OS:ShadingSurfaceGroup,
  {acef7336-7af1-4fad-93fe-bf0380f5ef3c}, !- Handle
  Shading Surface Group 1,                !- Name
  Building;                               !- Shading Surface Type

OS:Construction,
  {60098bd7-e22a-4c99-bd8f-e9ca0eb31d91}, !- Handle
  Underground Wall Non-res,               !- Name
  {335c4c07-fb5e-45a8-b963-3bc2f1131cf1}, !- Surface Rendering Name
  {0c98b746-ec5b-4044-a049-aef7851b0f0c}, !- Layer 1
  {dede40f2-eb4d-4599-ab0d-5757a58007e8}; !- Layer 2

OS:Material,
  {0c98b746-ec5b-4044-a049-aef7851b0f0c}, !- Handle
  8IN CONCRETE HW [8 in][20.32 cm],       !- Name
  Rough,                                  !- Roughness
  0.2032,                                 !- Thickness {m}
  1.311,                                  !- Conductivity {W/m-K}
  2240,                                   !- Density {kg/m3}
  836.8,                                  !- Specific Heat {J/kg-K}
  0.9,                                    !- Thermal Absorptance
  0.7,                                    !- Solar Absorptance