
OS:Version,
  {f9811c9b-4036-436d-aaf4-62e06c5ae45b}, !- Handle
  3.3.0,                                  !- Version Identifier
  alpha;                                  !- Prerelease Identifier

OS:Space,
  {b187c00e-a4be-46d9-8ac6-87ea4318652e}, !- Handle
  Space 1,                                !- Name
  ,                                       !- Space Type Name
  ,                                       !- Default Construction Set Name
  ,                                       !- Default Schedule Set Name
  ,                                       !- Direction of Relative North {deg}
  0,                                      !- X Origin {m}
  0,                                      !- Y Origin {m}
  0;                                      !- Z Origin {m}

OS:Surface,
  {23cf5dba-0f3f-43ac-bcc5-af1715635122}, !- Handle
  Surface 1,                              !- Name
  Floor,                                  !- Surface Type
  ,                                       !- Construction Name
  {b187c00e-a4be-46d9-8ac6-87ea4318652e}, !- Space Name
  Ground,                                 !- Outside Boundary Condition
  ,                                       !- Outside Boundary Condition Object
  NoSun,                                  !- Sun Exposure
  NoWind,                                 !- Wind Exposure
  ,                                       !- View Factor to Ground
  ,                                       !- Number of Vertices
  0, 1, 0,                                !- X,Y,Z Vertex 1 {m}
  1, 1, 0,                                !- X,Y,Z Vertex 2 {m}
  1, 0, 0,                                !- X,Y,Z Vertex 3 {m}
  0, 0, 0;                                !- X,Y,Z Vertex 4 {m}

OS:Surface,
  {dc3ab7ef-4cd5-476e-9258-0af8f447cc33}, !- Handle
  Surface 2,                              !- Name
  Wall,                                   !- Surface Type
  ,                                       !- Construction Name
  {b187c00e-a4be-46d9-8ac6-87ea4318652e}, !- Space Name
  Surface,                                !- Outside Boundary Condition
  {779f4382-0862-470c-9657-1165e5bea3e9}, !- Outside Boundary Condition Object
  NoSun,                                  !- Sun Exposure
  NoWind,                                 !- Wind Exposure
  ,                                       !- View Factor to Ground
  ,                                       !- Number of Vertices
  1, 1, 1,                                !- X,Y,Z Vertex 1 {m}
  1, 1, 0,                                !- X,Y,Z Vertex 2 {m}
  0, 1, 0,                                !- X,Y,Z Vertex 3 {m}
  0, 1, 1;                                !- X,Y,Z Vertex 4 {m}

OS:Surface,
  {56ff1c11-4e08-4293-8fb2-e202a4e02b04}, !- Handle
  Surface 3,                              !- Name
  Wall,                                   !- Surface Type
  ,                                       !- Construction Name
  {b187c00e-a4be-46d9-8ac6-87ea4318652e}, !- Space Name
  Surface,                                !- Outside Boundary Condition
  {b3ace2b8-ab00-4b27-b0a0-a1a51d78845f}, !- Outside Boundary Condition Object
  NoSun,                                  !- Sun Exposure
  NoWind,                                 !- Wind Exposure
  ,                                       !- View Factor to Ground
  ,                                       !- Number of Vertices
  1, 0, 1,                                !- X,Y,Z Vertex 1 {m}
  1, 0, 0,                                !- X,Y,Z Vertex 2 {m}
  1, 1, 0,                                !- X,Y,Z Vertex 3 {m}
  1, 1, 1;                                !- X,Y,Z Vertex 4 {m}

OS:Surface,
  {8d2b228a-6b76-4a34-a73a-2e3af4fa9055}, !- Handle
  Surface 4,                              !- Name
  Wall,                                   !- Surface Type
  ,                                       !- Construction Name
  {b187c00e-a4be-46d9-8ac6-87ea4318652e}, !- Space Name
  Outdoors,                               !- Outside Boundary Condition
  ,                                       !- Outside Boundary Condition Object
  SunExposed,                             !- Sun Exposure
  WindExposed,                            !- Wind Exposure
  ,                                       !- View Factor to Ground
  ,                                       !- Number of Vertices
  0, 0, 1,                                !- X,Y,Z Vertex 1 {m}
  0, 0, 0,                                !- X,Y,Z Vertex 2 {m}
  1, 0, 0,                                !- X,Y,Z Vertex 3 {m}
  1, 0, 1;                                !- X,Y,Z Vertex 4 {m}

OS:Surface,
  {6e0b0f76-54bc-4fc7-8e35-dda84dcd43eb}, !- Handle
  Surface 5,                              !- Name
  Wall,                                   !- Surface Type
  ,                                       !- Construction Name
  {b187c00e-a4be-46d9-8ac6-87ea4318652e}, !- Space Name
  Outdoors,                               !- Outside Boundary Condition
  ,                                       !- Outside Boundary Condition Object
  SunExposed,                             !- Sun Exposure
  WindExposed,                            !- Wind Exposure
  ,                                       !- View Factor to Ground
  ,                                       !- Number of Vertices
  0, 1, 1,                                !- X,Y,Z Vertex 1 {m}
  0, 1, 0,                                !- X,Y,Z Vertex 2 {m}
  0, 0, 0,                                !- X,Y,Z Vertex 3 {m}
  0, 0, 1;                                !- X,Y,Z Vertex 4 {m}

OS:Surface,
  {a2bca741-dc29-4ae1-84b7-3e360f60cec6}, !- Handle
  Surface 6,                              !- Name
  RoofCeiling,                            !- Surface Type
  ,                                       !- Construction Name
  {b187c00e-a4be-46d9-8ac6-87ea4318652e}, !- Space Name
  Surface,                                !- Outside Boundary Condition
  {8a418abe-fb27-4c14-bad1-205bd1596810}, !- Outside Boundary Condition Object
  NoSun,                                  !- Sun Exposure
  NoWind,                                 !- Wind Exposure
  ,                                       !- View Factor to Ground
  ,                                       !- Number of Vertices
  0, 0, 1,                                !- X,Y,Z Vertex 1 {m}
  1, 0, 1,                                !- X,Y,Z Vertex 2 {m}
  1, 1, 1,                                !- X,Y,Z Vertex 3 {m}
  0, 1, 1;                                !- X,Y,Z Vertex 4 {m}

OS:SubSurface,
  {7a856f3e-b64f-4bc7-ae01-c9ced27bdea8}, !- Handle
  Sub Surface 1,                          !- Name
  FixedWindow,                            !- Sub Surface Type
  ,                                       !- Construction Name
  {dc3ab7ef-4cd5-476e-9258-0af8f447cc33}, !- Surface Name
  {0c21c196-9fc4-445a-814e-debebcd198b2}, !- Outside Boundary Condition Object
  ,                                       !- View Factor to Ground
  ,                                       !- Frame and Divider Name
  ,                                       !- Multiplier
  ,                                       !- Number of Vertices
  0.75, 1, 0.75,                          !- X,Y,Z Vertex 1 {m}
  0.75, 1, 0.25,                          !- X,Y,Z Vertex 2 {m}
  0.25, 1, 0.25,                          !- X,Y,Z Vertex 3 {m}
  0.25, 1, 0.75;                          !- X,Y,Z Vertex 4 {m}

OS:SubSurface,
  {ca7d1292-ade3-4069-aa4c-084b7cf4e6b7}, !- Handle
  Sub Surface 2,                          !- Name
  FixedWindow,                            !- Sub Surface Type
  ,                                       !- Construction Name
  {8d2b228a-6b76-4a34-a73a-2e3af4fa9055}, !- Surface Name
  ,                                       !- Outside Boundary Condition Object
  ,                                       !- View Factor to Ground
  ,                                       !- Frame and Divider Name
  ,                                       !- Multiplier
  ,                                       !- Number of Vertices
  0.25, 0, 0.75,                          !- X,Y,Z Vertex 1 {m}
  0.25, 0, 0.25,                          !- X,Y,Z Vertex 2 {m}
  0.75, 0, 0.25,                          !- X,Y,Z Vertex 3 {m}
  0.75, 0, 0.75;                          !- X,Y,Z Vertex 4 {m}

OS:SubSurface,
  {c0498a63-ff6b-4b8a-9f0c-81ae3bfad81a}, !- Handle
  Sub Surface 3,                          !- Name
  FixedWindow,                            !- Sub Surface Type
  ,                                       !- Construction Name
  {56ff1c11-4e08-4293-8fb2-e202a4e02b04}, !- Surface Name
  {e56d620e-3e29-41ee-a24e-b1bddab97c40}, !- Outside Boundary Condition Object
  ,                                       !- View Factor to Ground
  ,                                       !- Frame and Divider Name
  ,                                       !- Multiplier
  ,                                       !- Number of Vertices
  1, 0.25, 0.75,                          !- X,Y,Z Vertex 1 {m}
  1, 0.25, 0.25,                          !- X,Y,Z Vertex 2 {m}
  1, 0.75, 0.25,                          !- X,Y,Z Vertex 3 {m}
  1, 0.75, 0.75;                          !- X,Y,Z Vertex 4 {m}

OS:SubSurface,
  {f47a8589-a28c-48a3-a3f7-13d47fb343fd}, !- Handle
  Sub Surface 4,                          !- Name
  FixedWindow,                            !- Sub Surface Type
  ,                                       !- Construction Name
  {6e0b0f76-54bc-4fc7-8e35-dda84dcd43eb}, !- Surface Name
  ,                                       !- Outside Boundary Condition Object
  ,                                       !- View Factor to Ground
  ,                                       !- Frame and Divider Name
  ,                                       !- Multiplier
  ,                                       !- Number of Vertices
  0, 0.75, 0.75,                          !- X,Y,Z Vertex 1 {m}
  0, 0.75, 0.25,                          !- X,Y,Z Vertex 2 {m}
  0, 0.25, 0.25,                          !- X,Y,Z Vertex 3 {m}
  0, 0.25, 0.75;                          !- X,Y,Z Vertex 4 {m}

OS:Space,
  {dc4204f9-dbd1-43fb-b021-13ba18a54744}, !- Handle
  Space 2,                                !- Name
  ,                                       !- Space Type Name
  ,                                       !- Default Construction Set Name
  ,                                       !- Default Schedule Set Name
  ,                                       !- Direction of Relative North {deg}
  0,                                      !- X Origin {m}
  0,                                      !- Y Origin {m}
  1;                                      !- Z Origin {m}

OS:Surface,
  {8a418abe-fb27-4c14-bad1-205bd1596810}, !- Handle
  Surface 7,                              !- Name
  Floor,                                  !- Surface Type
  ,                                       !- Construction Name
  {dc4204f9-dbd1-43fb-b021-13ba18a54744}, !- Space Name
  Surface,                                !- Outside Boundary Condition
  {a2bca741-dc29-4ae1-84b7-3e360f60cec6}, !- Outside Boundary Condition Object
  NoSun,                                  !- Sun Exposure
  NoWind,                                 !- Wind Exposure
  ,                                       !- View Factor to Ground
  ,                                       !- Number of Vertices
  0, 1, 0,                                !- X,Y,Z Vertex 1 {m}
  1, 1, 0,                                !- X,Y,Z Vertex 2 {m}
  1, 0, 0,                                !- X,Y,Z Vertex 3 {m}
  0, 0, 0;                                !- X,Y,Z Vertex 4 {m}

OS:Surface,
  {7ab30b05-93fb-4280-aadc-938f5b282c7a}, !- Handle
  Surface 8,                              !- Name
  Wall,                                   !- Surface Type
  ,                                       !- Construction Name
  {dc4204f9-dbd1-43fb-b021-13ba18a54744}, !- Space Name
  Surface,                                !- Outside Boundary Condition
  {d5910231-f092-4944-8d54-5f456a38545a}, !- Outside Boundary Condition Object
  NoSun,                                  !- Sun Exposure
  NoWind,                                 !- Wind Exposure
  ,                                       !- View Factor to Ground
  ,                                       !- Number of Vertices
  1, 1, 1,                                !- X,Y,Z Vertex 1 {m}
  1, 1, 0,                                !- X,Y,Z Vertex 2 {m}
  0, 1, 0,                                !- X,Y,Z Vertex 3 {m}
  0, 1, 1;                                !- X,Y,Z Vertex 4 {m}

OS:Surface,
  {caf8348d-4886-40d2-9920-e6d5c09e0105}, !- Handle
  Surface 9,                              !- Name
  Wall,                                   !- Surface Type
  ,                                       !- Construction Name
  {dc4204f9-dbd1-43fb-b021-13ba18a54744}, !- Space Name
  Surface,                                !- Outside Boundary Condition
  {04c1bb6a-6360-49e1-b984-817ff31c74de}, !- Outside Boundary Condition Object
  NoSun,                                  !- Sun Exposure
  NoWind,                                 !- Wind Exposure
  ,                                       !- View Factor to Ground
  ,                                       !- Number of Vertices
  1, 0, 1,                                !- X,Y,Z Vertex 1 {m}
  1, 0, 0,                                !- X,Y,Z Vertex 2 {m}
  1, 1, 0,                                !- X,Y,Z Vertex 3 {m}
  1, 1, 1;                                !- X,Y,Z Vertex 4 {m}

OS:Surface,
  {50db4339-fa9e-4e88-bc87-913a88cfb7fe}, !- Handle
  Surface 10,                             !- Name
  Wall,                                   !- Surface Type
  ,                                       !- Construction Name
  {dc4204f9-dbd1-43fb-b021-13ba18a54744}, !- Space Name
  Outdoors,                               !- Outside Boundary Condition
  ,                                       !- Outside Boundary Condition Object
  SunExposed,                             !- Sun Exposure
  WindExposed,                            !- Wind Exposure
  ,                                       !- View Factor to Ground
  ,                                       !- Number of Vertices
  0, 0, 1,                                !- X,Y,Z Vertex 1 {m}
  0, 0, 0,                                !- X,Y,Z Vertex 2 {m}
  1, 0, 0,                                !- X,Y,Z Vertex 3 {m}
  1, 0, 1;                                !- X,Y,Z Vertex 4 {m}

OS:Surface,
  {0aed92a7-daaa-4292-9fe2-caf60c988e4f}, !- Handle
  Surface 11,                             !- Name
  Wall,                                   !- Surface Type
  ,                                       !- Construction Name
  {dc4204f9-dbd1-43fb-b021-13ba18a54744}, !- Space Name
  Outdoors,                               !- Outside Boundary Condition
  ,                                       !- Outside Boundary Condition Object
  SunExposed,                             !- Sun Exposure
  WindExposed,                            !- Wind Exposure
  ,                                       !- View Factor to Ground
  ,                                       !- Number of Vertices
  0, 1, 1,                                !- X,Y,Z Vertex 1 {m}
  0, 1, 0,                                !- X,Y,Z Vertex 2 {m}
  0, 0, 0,                                !- X,Y,Z Vertex 3 {m}
  0, 0, 1;                                !- X,Y,Z Vertex 4 {m}

OS:Surface,
  {e7f1f7c5-d1c2-4582-8557-f4903bff6616}, !- Handle
  Surface 12,                             !- Name
  RoofCeiling,                            !- Surface Type
  ,                                       !- Construction Name
  {dc4204f9-dbd1-43fb-b021-13ba18a54744}, !- Space Name
  Outdoors,                               !- Outside Boundary Condition
  ,                                       !- Outside Boundary Condition Object
  SunExposed,                             !- Sun Exposure
  WindExposed,                            !- Wind Exposure
  ,                                       !- View Factor to Ground
  ,                                       !- Number of Vertices
  0, 0, 1,                                !- X,Y,Z Vertex 1 {m}
  1, 0, 1,                                !- X,Y,Z Vertex 2 {m}
  1, 1, 1,                                !- X,Y,Z Vertex 3 {m}
  0, 1, 1;                                !- X,Y,Z Vertex 4 {m}

OS:SubSurface,
  {4fd0de01-08a1-49b6-8a24-b56a6a3c07d9}, !- Handle
  Sub Surface 5,                          !- Name
  FixedWindow,                            !- Sub Surface Type
  ,                                       !- Construction Name
  {7ab30b05-93fb-4280-aadc-938f5b282c7a}, !- Surface Name
  {e53a29fd-af07-4de5-a744-540fd1efef9e}, !- Outside Boundary Condition Object
  ,                                       !- View Factor to Ground
  ,                                       !- Frame and Divider Name
  ,                                       !- Multiplier
  ,                                       !- Number of Vertices
  0.75, 1, 0.75,                          !- X,Y,Z Vertex 1 {m}
  0.75, 1, 0.25,                          !- X,Y,Z Vertex 2 {m}
  0.25, 1, 0.25,                          !- X,Y,Z Vertex 3 {m}
  0.25, 1, 0.75;                          !- X,Y,Z Vertex 4 {m}

OS:SubSurface,
  {d7926e68-7086-4515-a6d5-7d6c646afeb8}, !- Handle
  Sub Surface 6,                          !- Name
  FixedWindow,                            !- Sub Surface Type
  ,                                       !- Construction Name
  {50db4339-fa9e-4e88-bc87-913a88cfb7fe}, !- Surface Name
  ,                                       !- Outside Boundary Condition Object
  ,                                       !- View Factor to Ground
  ,                                       !- Frame and Divider Name
  ,                                       !- Multiplier
  ,                                       !- Number of Vertices
  0.25, 0, 0.75,                          !- X,Y,Z Vertex 1 {m}
  0.25, 0, 0.25,                          !- X,Y,Z Vertex 2 {m}
  0.75, 0, 0.25,                          !- X,Y,Z Vertex 3 {m}
  0.75, 0, 0.75;                          !- X,Y,Z Vertex 4 {m}

OS:SubSurface,
  {99c5af09-300b-4dfb-b31f-0d093dc71be0}, !- Handle
  Sub Surface 7,                          !- Name
  FixedWindow,                            !- Sub Surface Type
  ,                                       !- Construction Name
  {caf8348d-4886-40d2-9920-e6d5c09e0105}, !- Surface Name
  {42211c8d-8a86-444b-9c1a-7e68e2438406}, !- Outside Boundary Condition Object
  ,                                       !- View Factor to Ground
  ,                                       !- Frame and Divider Name
  ,                                       !- Multiplier
  ,                                       !- Number of Vertices
  1, 0.25, 0.75,                          !- X,Y,Z Vertex 1 {m}
  1, 0.25, 0.25,                          !- X,Y,Z Vertex 2 {m}
  1, 0.75, 0.25,                          !- X,Y,Z Vertex 3 {m}
  1, 0.75, 0.75;                          !- X,Y,Z Vertex 4 {m}

OS:SubSurface,
  {d823b720-4473-4ab6-ba69-e95ac8dfd53d}, !- Handle
  Sub Surface 8,                          !- Name
  FixedWindow,                            !- Sub Surface Type
  ,                                       !- Construction Name
  {0aed92a7-daaa-4292-9fe2-caf60c988e4f}, !- Surface Name
  ,                                       !- Outside Boundary Condition Object
  ,                                       !- View Factor to Ground
  ,                                       !- Frame and Divider Name
  ,                                       !- Multiplier
  ,                                       !- Number of Vertices
  0, 0.75, 0.75,                          !- X,Y,Z Vertex 1 {m}
  0, 0.75, 0.25,                          !- X,Y,Z Vertex 2 {m}
  0, 0.25, 0.25,                          !- X,Y,Z Vertex 3 {m}
  0, 0.25, 0.75;                          !- X,Y,Z Vertex 4 {m}

OS:Space,
  {b486bf7f-623c-4412-99ed-2fdcc5ddb659}, !- Handle
  Space 3,                                !- Name
  ,                                       !- Space Type Name
  ,                                       !- Default Construction Set Name
  ,                                       !- Default Schedule Set Name
  ,                                       !- Direction of Relative North {deg}
  0,                                      !- X Origin {m}
  1,                                      !- Y Origin {m}
  0;                                      !- Z Origin {m}

OS:Surface,
  {e4685dc5-d8c1-454b-8c84-b848cd3f7eaf}, !- Handle
  Surface 13,                             !- Name
  Floor,                                  !- Surface Type
  ,                                       !- Construction Name
  {b486bf7f-623c-4412-99ed-2fdcc5ddb659}, !- Space Name
  Ground,                                 !- Outside Boundary Condition
  ,                                       !- Outside Boundary Condition Object
  NoSun,                                  !- Sun Exposure
  NoWind,                                 !- Wind Exposure
  ,                                       !- View Factor to Ground
  ,                                       !- Number of Vertices
  0, 1, 0,                                !- X,Y,Z Vertex 1 {m}
  1, 1, 0,                                !- X,Y,Z Vertex 2 {m}
  1, 0, 0,                                !- X,Y,Z Vertex 3 {m}
  0, 0, 0;                                !- X,Y,Z Vertex 4 {m}

OS:Surface,
  {b63fdaa5-2ec4-4f1e-b67c-9f9ecb50e570}, !- Handle
  Surface 14,                             !- Name
  Wall,                                   !- Surface Type
  ,                                       !- Construction Name
  {b486bf7f-623c-4412-99ed-2fdcc5ddb659}, !- Space Name
  Outdoors,                               !- Outside Boundary Condition
  ,                                       !- Outside Boundary Condition Object
  SunExposed,                             !- Sun Exposure
  WindExposed,                            !- Wind Exposure
  ,                                       !- View Factor to Ground
  ,                                       !- Number of Vertices
  1, 1, 1,                                !- X,Y,Z Vertex 1 {m}
  1, 1, 0,                                !- X,Y,Z Vertex 2 {m}
  0, 1, 0,                                !- X,Y,Z Vertex 3 {m}
  0, 1, 1;                                !- X,Y,Z Vertex 4 {m}

OS:Surface,
  {58fdef84-e9d8-4892-8825-9e6a4690fb12}, !- Handle
  Surface 15,                             !- Name
  Wall,                                   !- Surface Type
  ,                                       !- Construction Name
  {b486bf7f-623c-4412-99ed-2fdcc5ddb659}, !- Space Name
  Surface,                                !- Outside Boundary Condition
  {98d3f0a6-8118-4ffb-9974-cc582ac7fb12}, !- Outside Boundary Condition Object
  NoSun,                                  !- Sun Exposure
  NoWind,                                 !- Wind Exposure
  ,                                       !- View Factor to Ground
  ,                                       !- Number of Vertices
  1, 0, 1,                                !- X,Y,Z Vertex 1 {m}
  1, 0, 0,                                !- X,Y,Z Vertex 2 {m}
  1, 1, 0,                                !- X,Y,Z Vertex 3 {m}
  1, 1, 1;                                !- X,Y,Z Vertex 4 {m}

OS:Surface,
  {779f4382-0862-470c-9657-1165e5bea3e9}, !- Handle
  Surface 16,                             !- Name
  Wall,                                   !- Surface Type
  ,                                       !- Construction Name
  {b486bf7f-623c-4412-99ed-2fdcc5ddb659}, !- Space Name
  Surface,                                !- Outside Boundary Condition
  {dc3ab7ef-4cd5-476e-9258-0af8f447cc33}, !- Outside Boundary Condition Object
  NoSun,                                  !- Sun Exposure
  NoWind,                                 !- Wind Exposure
  ,                                       !- View Factor to Ground
  ,                                       !- Number of Vertices
  0, 0, 1,                                !- X,Y,Z Vertex 1 {m}
  0, 0, 0,                                !- X,Y,Z Vertex 2 {m}
  1, 0, 0,                                !- X,Y,Z Vertex 3 {m}
  1, 0, 1;                                !- X,Y,Z Vertex 4 {m}

OS:Surface,
  {1b1b7d65-f63e-4e1f-98fb-f577018c35c0}, !- Handle
  Surface 17,                             !- Name
  Wall,                                   !- Surface Type
  ,                                       !- Construction Name
  {b486bf7f-623c-4412-99ed-2fdcc5ddb659}, !- Space Name
  Outdoors,                               !- Outside Boundary Condition
  ,                                       !- Outside Boundary Condition Object
  SunExposed,                             !- Sun Exposure
  WindExposed,                            !- Wind Exposure
  ,                                       !- View Factor to Ground
  ,                                       !- Number of Vertices
  0, 1, 1,                                !- X,Y,Z Vertex 1 {m}
  0, 1, 0,                                !- X,Y,Z Vertex 2 {m}
  0, 0, 0,                                !- X,Y,Z Vertex 3 {m}
  0, 0, 1;                                !- X,Y,Z Vertex 4 {m}

OS:Surface,
  {21bee47b-05bb-45aa-ab41-2452b740a0de}, !- Handle
  Surface 18,                             !- Name
  RoofCeiling,                            !- Surface Type
  ,                                       !- Construction Name
  {b486bf7f-623c-4412-99ed-2fdcc5ddb659}, !- Space Name
  Surface,                                !- Outside Boundary Condition
  {e484e04f-077e-409d-9e1a-db9050223699}, !- Outside Boundary Condition Object
  NoSun,                                  !- Sun Exposure
  NoWind,                                 !- Wind Exposure
  ,                                       !- View Factor to Ground
  ,                                       !- Number of Vertices
  0, 0, 1,                                !- X,Y,Z Vertex 1 {m}
  1, 0, 1,                                !- X,Y,Z Vertex 2 {m}
  1, 1, 1,                                !- X,Y,Z Vertex 3 {m}
  0, 1, 1;                                !- X,Y,Z Vertex 4 {m}

OS:SubSurface,
  {f7310b34-f5f5-400d-bfbf-2df7dc3ad727}, !- Handle
  Sub Surface 9,                          !- Name
  FixedWindow,                            !- Sub Surface Type
  ,                                       !- Construction Name
  {b63fdaa5-2ec4-4f1e-b67c-9f9ecb50e570}, !- Surface Name
  ,                                       !- Outside Boundary Condition Object
  ,                                       !- View Factor to Ground
  ,                                       !- Frame and Divider Name
  ,                                       !- Multiplier
  ,                                       !- Number of Vertices
  0.75, 1, 0.75,                          !- X,Y,Z Vertex 1 {m}
  0.75, 1, 0.25,                          !- X,Y,Z Vertex 2 {m}
  0.25, 1, 0.25,                          !- X,Y,Z Vertex 3 {m}
  0.25, 1, 0.75;                          !- X,Y,Z Vertex 4 {m}

OS:SubSurface,
  {0c21c196-9fc4-445a-814e-debebcd198b2}, !- Handle
  Sub Surface 10,                         !- Name
  FixedWindow,                            !- Sub Surface Type
  ,                                       !- Construction Name
  {779f4382-0862-470c-9657-1165e5bea3e9}, !- Surface Name
  {7a856f3e-b64f-4bc7-ae01-c9ced27bdea8}, !- Outside Boundary Condition Object
  ,                                       !- View Factor to Ground
  ,                                       !- Frame and Divider Name
  ,                                       !- Multiplier
  ,                                       !- Number of Vertices
  0.25, 0, 0.75,                          !- X,Y,Z Vertex 1 {m}
  0.25, 0, 0.25,                          !- X,Y,Z Vertex 2 {m}
  0.75, 0, 0.25,                          !- X,Y,Z Vertex 3 {m}
  0.75, 0, 0.75;                          !- X,Y,Z Vertex 4 {m}

OS:SubSurface,
  {7f39f252-2f50-4b6c-b555-2863f4215615}, !- Handle
  Sub Surface 11,                         !- Name
  FixedWindow,                            !- Sub Surface Type
  ,                                       !- Construction Name
  {58fdef84-e9d8-4892-8825-9e6a4690fb12}, !- Surface Name
  {c532d760-acd4-40ef-b23c-4ae030d4d51f}, !- Outside Boundary Condition Object
  ,                                       !- View Factor to Ground
  ,                                       !- Frame and Divider Name
  ,                                       !- Multiplier
  ,                                       !- Number of Vertices
  1, 0.25, 0.75,                          !- X,Y,Z Vertex 1 {m}
  1, 0.25, 0.25,                          !- X,Y,Z Vertex 2 {m}
  1, 0.75, 0.25,                          !- X,Y,Z Vertex 3 {m}
  1, 0.75, 0.75;                          !- X,Y,Z Vertex 4 {m}

OS:SubSurface,
  {db6802b4-1f30-4116-add5-4fcd86fdc1e7}, !- Handle
  Sub Surface 12,                         !- Name
  FixedWindow,                            !- Sub Surface Type
  ,                                       !- Construction Name
  {1b1b7d65-f63e-4e1f-98fb-f577018c35c0}, !- Surface Name
  ,                                       !- Outside Boundary Condition Object
  ,                                       !- View Factor to Ground
  ,                                       !- Frame and Divider Name
  ,                                       !- Multiplier
  ,                                       !- Number of Vertices
  0, 0.75, 0.75,                          !- X,Y,Z Vertex 1 {m}
  0, 0.75, 0.25,                          !- X,Y,Z Vertex 2 {m}
  0, 0.25, 0.25,                          !- X,Y,Z Vertex 3 {m}
  0, 0.25, 0.75;                          !- X,Y,Z Vertex 4 {m}

OS:Space,
  {d42bc265-1cc9-46e5-a467-1b419ee2ead2}, !- Handle
  Space 4,                                !- Name
  ,                                       !- Space Type Name
  ,                                       !- Default Construction Set Name
  ,                                       !- Default Schedule Set Name