
OS:Version,
  {f9ea655b-44f8-4f1f-867f-408936230ed8}, !- Handle
  3.2.2,                                  !- Version Identifier
  alpha;                                  !- Prerelease Identifier

OS:Material:NoMass,
  {ce61f4dd-3e24-4a0a-a12c-6b672dfd55e2}, !- Handle
  Minwool batt R11 w/ 2x4 frame,          !- Name
  Smooth,                                 !- Roughness
  8.32;                                   !- Thermal Resistance {m2-K/W}

OS:AdditionalProperties,
  {2ce4b535-84e1-4878-974b-91ff78081ead}, !- Handle
  {ce61f4dd-3e24-4a0a-a12c-6b672dfd55e2}, !- Object Name
  gbXMLId,                                !- Feature Name 1
  String,                                 !- Feature Data Type 1
  mat-447;                                !- Feature Value 1

OS:Material,
  {caed54d3-9c24-4656-9a91-cea50819e8f4}, !- Handle
  5/8 in gyp board,                       !- Name
  MediumRough,                            !- Roughness
  0.0159,                                 !- Thickness {m}
  0.16,                                   !- Conductivity {W/m-K}
  800,                                    !- Density {kg/m3}
  1090;                                   !- Specific Heat {J/kg-K}

OS:AdditionalProperties,
  {647489a5-e1a5-4bdf-9332-91b762c4350f}, !- Handle
  {caed54d3-9c24-4656-9a91-cea50819e8f4}, !- Object Name
  gbXMLId,                                !- Feature Name 1
  String,                                 !- Feature Data Type 1
  mat-AG01;                               !- Feature Value 1

OS:Material,
  {d97ed22b-a4c1-4477-9068-94f52a270cd2}, !- Handle
  8 in lightweight concrete,              !- Name
  MediumRough,                            !- Roughness
  0.2032,                                 !- Thickness {m}
  0.53,                                   !- Conductivity {W/m-K}
  1280,                                   !- Density {kg/m3}
  840;                                    !- Specific Heat {J/kg-K}

OS:AdditionalProperties,
  {1c54ab1d-fb23-421c-9cb7-3df27074bbe4}, !- Handle
  {d97ed22b-a4c1-4477-9068-94f52a270cd2}, !- Object Name
  gbXMLId,                                !- Feature Name 1
  String,                                 !- Feature Data Type 1
  mat-AM13;                               !- Feature Value 1

OS:Material,
  {1e67802a-b212-465e-a487-3fb1a8288263}, !- Handle
  6 in heavyweight concrete,              !- Name
  MediumRough,                            !- Roughness
  0.1524,                                 !- Thickness {m}
  1.95,                                   !- Conductivity {W/m-K}
  2240,                                   !- Density {kg/m3}
  900;                                    !- Specific Heat {J/kg-K}

OS:AdditionalProperties,
  {cdd7c79a-efa0-458f-8140-a0efbb4da2b0}, !- Handle
  {1e67802a-b212-465e-a487-3fb1a8288263}, !- Object Name
  gbXMLId,                                !- Feature Name 1
  String,                                 !- Feature Data Type 1
  mat-AM14;                               !- Feature Value 1

OS:Material,
  {55ad5ff7-a301-40ce-a74e-1b03d1d15ceb}, !- Handle
  R-15- 3 in insulation board,            !- Name
  MediumRough,                            !- Roughness
  0.0762,                                 !- Thickness {m}
  0.03,                                   !- Conductivity {W/m-K}
  43,                                     !- Density {kg/m3}
  1210;                                   !- Specific Heat {J/kg-K}

OS:AdditionalProperties,
  {717539a4-489b-4aa4-b88c-539717c6dd8e}, !- Handle
  {55ad5ff7-a301-40ce-a74e-1b03d1d15ceb}, !- Object Name
  gbXMLId,                                !- Feature Name 1
  String,                                 !- Feature Data Type 1
  mat-AI03;                               !- Feature Value 1

OS:Material,
  {9dfe818d-a05e-4818-a2a5-351562b4c50c}, !- Handle
  4 in brick,                             !- Name
  MediumRough,                            !- Roughness
  0.1016,                                 !- Thickness {m}
  0.89,                                   !- Conductivity {W/m-K}
  1920,                                   !- Density {kg/m3}
  790;                                    !- Specific Heat {J/kg-K}

OS:AdditionalProperties,
  {7cd35865-f097-4834-8c2a-2226768f525b}, !- Handle
  {9dfe818d-a05e-4818-a2a5-351562b4c50c}, !- Object Name
  gbXMLId,                                !- Feature Name 1
  String,                                 !- Feature Data Type 1
  mat-AM01;                               !- Feature Value 1

OS:Material,
  {01b72367-7703-45d7-b040-ac7e3e51d7ca}, !- Handle
  R-10- 2 in insulation board,            !- Name
  MediumRough,                            !- Roughness
  0.0508,                                 !- Thickness {m}
  0.03,                                   !- Conductivity {W/m-K}
  43,                                     !- Density {kg/m3}
  1210;                                   !- Specific Heat {J/kg-K}

OS:AdditionalProperties,
  {1e1d46a2-b8c5-4875-a3ac-0d3ebc3ccbca}, !- Handle
  {01b72367-7703-45d7-b040-ac7e3e51d7ca}, !- Object Name
  gbXMLId,                                !- Feature Name 1
  String,                                 !- Feature Data Type 1
  mat-AI02;                               !- Feature Value 1

OS:Material,
  {5c503030-9e47-4752-a43e-d3c4101c45ac}, !- Handle
  Metal surface,                          !- Name
  MediumRough,                            !- Roughness
  0.0008,                                 !- Thickness {m}
  45.28,                                  !- Conductivity {W/m-K}
  7824,                                   !- Density {kg/m3}
  500;                                    !- Specific Heat {J/kg-K}

OS:AdditionalProperties,
  {cae7d310-b4d3-424a-acaa-cc48820e099e}, !- Handle
  {5c503030-9e47-4752-a43e-d3c4101c45ac}, !- Object Name
  gbXMLId,                                !- Feature Name 1
  String,                                 !- Feature Data Type 1
  mat-AF08;                               !- Feature Value 1

OS:Material,
  {333ba00a-b488-455a-bbb1-a7a1c3d755a2}, !- Handle
  1 1/2 in wood,                          !- Name
  MediumRough,                            !- Roughness
  0.0376,                                 !- Thickness {m}
  0.15,                                   !- Conductivity {W/m-K}
  608,                                    !- Density {kg/m3}
  1630;                                   !- Specific Heat {J/kg-K}

OS:AdditionalProperties,
  {e2da43c4-d793-4c4f-93e1-4c0b620af4ee}, !- Handle
  {333ba00a-b488-455a-bbb1-a7a1c3d755a2}, !- Object Name
  gbXMLId,                                !- Feature Name 1
  String,                                 !- Feature Data Type 1
  mat-860;                                !- Feature Value 1

OS:Material:NoMass,
  {5e124d3b-d3e8-419f-9f10-824ab837eb70}, !- Handle
  No insulation,                          !- Name
  Smooth,                                 !- Roughness
  1;                                      !- Thermal Resistance {m2-K/W}

OS:AdditionalProperties,
  {f3d46c27-07a5-45fd-8dcd-60da928957fd}, !- Handle
  {5e124d3b-d3e8-419f-9f10-824ab837eb70}, !- Object Name
  gbXMLId,                                !- Feature Name 1
  String,                                 !- Feature Data Type 1
  mat-842;                                !- Feature Value 1

OS:Construction,
  {60b5ac69-420f-4be9-b0fc-4c1dd6527afe}, !- Handle
  Frame partition with 3/4 in gypsum board, !- Name
  ,                                       !- Surface Rendering Name
  {ce61f4dd-3e24-4a0a-a12c-6b672dfd55e2}, !- Layer 1
  {caed54d3-9c24-4656-9a91-cea50819e8f4}; !- Layer 2

OS:Construction,
  {9cf24bba-0511-4720-8056-4a4367b7d01a}, !- Handle
  8 in lightweight concrete floor deck,   !- Name
  ,                                       !- Surface Rendering Name
  {d97ed22b-a4c1-4477-9068-94f52a270cd2}; !- Layer 1

OS:Construction,
  {923d3df6-e748-4997-a430-0f5928099cd6}, !- Handle
  6 in heavyweight concrete with 6 in insulation, !- Name
  ,                                       !- Surface Rendering Name
  {1e67802a-b212-465e-a487-3fb1a8288263}, !- Layer 1
  {55ad5ff7-a301-40ce-a74e-1b03d1d15ceb}, !- Layer 2
  {55ad5ff7-a301-40ce-a74e-1b03d1d15ceb}, !- Layer 3
  {1e67802a-b212-465e-a487-3fb1a8288263}; !- Layer 4

OS:Construction,
  {5a5c56fb-d4fc-4ab4-80d1-6caa0698ec2b}, !- Handle
  4 in face brick- 2 in insulation- 8 in light concrete block, !- Name
  ,                                       !- Surface Rendering Name
  {9dfe818d-a05e-4818-a2a5-351562b4c50c}, !- Layer 1
  {01b72367-7703-45d7-b040-ac7e3e51d7ca}, !- Layer 2
  {d97ed22b-a4c1-4477-9068-94f52a270cd2}, !- Layer 3
  {01b72367-7703-45d7-b040-ac7e3e51d7ca}, !- Layer 4
  {9dfe818d-a05e-4818-a2a5-351562b4c50c}; !- Layer 5

OS:Construction,
  {157e1ca2-ee0d-4618-a23a-7623a0e334e4}, !- Handle
  Metal,                                  !- Name
  ,                                       !- Surface Rendering Name
  {5c503030-9e47-4752-a43e-d3c4101c45ac}, !- Layer 1
  {333ba00a-b488-455a-bbb1-a7a1c3d755a2}, !- Layer 2
  {5c503030-9e47-4752-a43e-d3c4101c45ac}; !- Layer 3

OS:Construction,
  {07925440-6ac3-4d30-84ff-a13e98027a0c}, !- Handle
  Ceiling below joists- no insulation,    !- Name
  ,                                       !- Surface Rendering Name
  {caed54d3-9c24-4656-9a91-cea50819e8f4}, !- Layer 1
  {5e124d3b-d3e8-419f-9f10-824ab837eb70}; !- Layer 2

OS:Construction,
  {9d1798e9-3cf1-4f76-bcfd-2982e8b7d894}, !- Handle
  Double glazing - 1/4 in thick - gray/low-E (e = 0.2) glass, !- Name
  ,                                       !- Surface Rendering Name
  {1b895d66-59cc-4ec1-8f7d-dd1582aa6f9a}; !- Layer 1

OS:AdditionalProperties,
  {d5c2793d-e0a1-41e4-9c06-c906fc856e7b}, !- Handle
  {9d1798e9-3cf1-4f76-bcfd-2982e8b7d894}, !- Object Name
  gbXMLId,                                !- Feature Name 1
  String,                                 !- Feature Data Type 1
  opn-w69;                                !- Feature Value 1

OS:WindowMaterial:SimpleGlazingSystem,
  {1b895d66-59cc-4ec1-8f7d-dd1582aa6f9a}, !- Handle
  {e12a9d32-9f20-4582-9da5-76609481b763}, !- Name
  1.9873,                                 !- U-Factor {W/m2-K}
  0.39,                                   !- Solar Heat Gain Coefficient
  0.37;                                   !- Visible Transmittance

OS:Schedule:Year,
  {4710a465-3556-4bd9-8aa6-37c3c0862b7d}, !- Handle
  Common Office Occupancy - 8 AM to 5 PM, !- Name
  {b40d0976-802f-4371-9983-3b5b39e6c429}, !- Schedule Type Limits Name
  12,                                     !- Month 1
  31,                                     !- Day 1
  {905e4c75-cca8-4d5c-bbef-8d6a2088382c}; !- Week Schedule Until Date 1

OS:AdditionalProperties,
  {2bab1711-bf5a-46fe-9c6b-a48dd64a2293}, !- Handle
  {4710a465-3556-4bd9-8aa6-37c3c0862b7d}, !- Object Name
  gbXMLId,                                !- Feature Name 1
  String,                                 !- Feature Data Type 1
  schdl-1;                                !- Feature Value 1

OS:ScheduleTypeLimits,
  {b40d0976-802f-4371-9983-3b5b39e6c429}, !- Handle
  Fraction,                               !- Name
  ,                                       !- Lower Limit Value
  ,                                       !- Upper Limit Value
  ,                                       !- Numeric Type
  Dimensionless;                          !- Unit Type

OS:YearDescription,
  {8211f1cf-1095-47cb-b7aa-310e61e08712}, !- Handle
  2011,                                   !- Calendar Year
  ,                                       !- Day of Week for Start Day
  ;                                       !- Is Leap Year

OS:Schedule:Week,
  {905e4c75-cca8-4d5c-bbef-8d6a2088382c}, !- Handle
  wk-schdl-1,                             !- Name
  ,                                       !- Schedule Rendering Name
  {2973c4c4-8f7b-4367-9c9b-be5665d83b0a}, !- Sunday Schedule:Day Name
  {2973c4c4-8f7b-4367-9c9b-be5665d83b0a}, !- Monday Schedule:Day Name
  {2973c4c4-8f7b-4367-9c9b-be5665d83b0a}, !- Tuesday Schedule:Day Name
  {2973c4c4-8f7b-4367-9c9b-be5665d83b0a}, !- Wednesday Schedule:Day Name
  {2973c4c4-8f7b-4367-9c9b-be5665d83b0a}, !- Thursday Schedule:Day Name
  {2973c4c4-8f7b-4367-9c9b-be5665d83b0a}, !- Friday Schedule:Day Name
  {2973c4c4-8f7b-4367-9c9b-be5665d83b0a}, !- Saturday Schedule:Day Name
  {2973c4c4-8f7b-4367-9c9b-be5665d83b0a}, !- Holiday Schedule:Day Name
  {2973c4c4-8f7b-4367-9c9b-be5665d83b0a}, !- SummerDesignDay Schedule:Day Name
  {2973c4c4-8f7b-4367-9c9b-be5665d83b0a}, !- WinterDesignDay Schedule:Day Name
  {2973c4c4-8f7b-4367-9c9b-be5665d83b0a}, !- CustomDay1 Schedule:Day Name
  {2973c4c4-8f7b-4367-9c9b-be5665d83b0a}; !- CustomDay2 Schedule:Day Name

OS:AdditionalProperties,
  {0118439d-79c0-41f9-ab26-86e08c0ad859}, !- Handle
  {905e4c75-cca8-4d5c-bbef-8d6a2088382c}, !- Object Name
  gbXMLId,                                !- Feature Name 1
  String,                                 !- Feature Data Type 1
  wk-schdl-1;                             !- Feature Value 1

OS:Schedule:Day,
  {2973c4c4-8f7b-4367-9c9b-be5665d83b0a}, !- Handle
  dy-schdl-1,                             !- Name
  {b40d0976-802f-4371-9983-3b5b39e6c429}, !- Schedule Type Limits Name
  ,                                       !- Interpolate to Timestep
  1,                                      !- Hour 1
  0,                                      !- Minute 1
  0,                                      !- Value Until Time 1
  2,                                      !- Hour 2
  0,                                      !- Minute 2
  0,                                      !- Value Until Time 2
  3,                                      !- Hour 3
  0,                                      !- Minute 3
  0,                                      !- Value Until Time 3
  4,                                      !- Hour 4
  0,                                      !- Minute 4
  0,                                      !- Value Until Time 4
  5,                                      !- Hour 5
  0,                                      !- Minute 5
  0,                                      !- Value Until Time 5
  6,                                      !- Hour 6
  0,                                      !- Minute 6
  0,                                      !- Value Until Time 6
  7,                                      !- Hour 7
  0,                                      !- Minute 7
  0,                                      !- Value Until Time 7
  8,                                      !- Hour 8
  0,                                      !- Minute 8
  0.1,                                    !- Value Until Time 8
  9,                                      !- Hour 9
  0,                                      !- Minute 9
  0.2,                                    !- Value Until Time 9
  10,                                     !- Hour 10
  0,                                      !- Minute 10
  0.95,                                   !- Value Until Time 10
  11,                                     !- Hour 11
  0,                                      !- Minute 11
  0.95,                                   !- Value Until Time 11
  12,                                     !- Hour 12
  0,                                      !- Minute 12
  0.45,                                   !- Value Until Time 12
  13,                                     !- Hour 13
  0,                                      !- Minute 13
  0.45,                                   !- Value Until Time 13
  14,                                     !- Hour 14
  0,                                      !- Minute 14
  0.95,                                   !- Value Until Time 14
  15,                                     !- Hour 15
  0,                                      !- Minute 15
  0.95,                                   !- Value Until Time 15
  16,                                     !- Hour 16
  0,                                      !- Minute 16
  0.95,                                   !- Value Until Time 16
  17,                                     !- Hour 17
  0,                                      !- Minute 17
  0.95,                                   !- Value Until Time 17
  18,                                     !- Hour 18
  0,                                      !- Minute 18
  0.95,                                   !- Value Until Time 18
  19,                                     !- Hour 19
  0,                                      !- Minute 19
  0.3,                                    !- Value Until Time 19
  20,                                     !- Hour 20
  0,                                      !- Minute 20
  0.1,                                    !- Value Until Time 20
  21,                                     !- Hour 21
  0,                                      !- Minute 21
  0.1,                                    !- Value Until Time 21
  22,                                     !- Hour 22
  0,                                      !- Minute 22
  0.1,                                    !- Value Until Time 22
  23,                                     !- Hour 23
  0,                                      !- Minute 23
  0,                                      !- Value Until Time 23
  24,                                     !- Hour 24
  0,                                      !- Minute 24
  0;                                      !- Value Until Time 24

OS:AdditionalProperties,
  {e4feec57-aa21-40b4-884c-d22e93a7daee}, !- Handle
  {2973c4c4-8f7b-4367-9c9b-be5665d83b0a}, !- Object Name
  gbXMLId,                                !- Feature Name 1
  String,                                 !- Feature Data Type 1
  dy-schdl-1;                             !- Feature Value 1

OS:Schedule:Year,
  {2aa1dac0-7f41-4499-a2d6-bac33c93084c}, !- Handle
  Restaurant Occupancy - Lunch and Dinner, !- Name
  {b40d0976-802f-4371-9983-3b5b39e6c429}, !- Schedule Type Limits Name
  12,                                     !- Month 1
  31,                                     !- Day 1
  {a87f1f87-312c-43b3-9a2a-153b070c231d}; !- Week Schedule Until Date 1

OS:AdditionalProperties,
  {fb7a8858-84fe-4a66-8111-449f53e8f623}, !- Handle
  {2aa1dac0-7f41-4499-a2d6-bac33c93084c}, !- Object Name
  gbXMLId,                                !- Feature Name 1
  String,                                 !- Feature Data Type 1
  schdl-2;                                !- Feature Value 1

OS:Schedule:Week,
  {a87f1f87-312c-43b3-9a2a-153b070c231d}, !- Handle
  wk-schdl-2,                             !- Name
  ,                                       !- Schedule Rendering Name
  {5b2eeed2-2e84-4e6d-9e2b-a69b27c01b8a}, !- Sunday Schedule:Day Name
  {5b2eeed2-2e84-4e6d-9e2b-a69b27c01b8a}, !- Monday Schedule:Day Name
  {5b2eeed2-2e84-4e6d-9e2b-a69b27c01b8a}, !- Tuesday Schedule:Day Name
  {5b2eeed2-2e84-4e6d-9e2b-a69b27c01b8a}, !- Wednesday Schedule:Day Name
  {5b2eeed2-2e84-4e6d-9e2b-a69b27c01b8a}, !- Thursday Schedule:Day Name
  {5b2eeed2-2e84-4e6d-9e2b-a69b27c01b8a}, !- Friday Schedule:Day Name
  {5b2eeed2-2e84-4e6d-9e2b-a69b27c01b8a}, !- Saturday Schedule:Day Name
  {5b2eeed2-2e84-4e6d-9e2b-a69b27c01b8a}, !- Holiday Schedule:Day Name
  {5b2eeed2-2e84-4e6d-9e2b-a69b27c01b8a}, !- SummerDesignDay Schedule:Day Name
  {5b2eeed2-2e84-4e6d-9e2b-a69b27c01b8a}, !- WinterDesignDay Schedule:Day Name
  {5b2eeed2-2e84-4e6d-9e2b-a69b27c01b8a}, !- CustomDay1 Schedule:Day Name
  {5b2eeed2-2e84-4e6d-9e2b-a69b27c01b8a}; !- CustomDay2 Schedule:Day Name

OS:AdditionalProperties,
  {d1239a5b-bd52-4084-8010-1db856033983}, !- Handle
  {a87f1f87-312c-43b3-9a2a-153b070c231d}, !- Object Name
  gbXMLId,                                !- Feature Name 1
  String,                                 !- Feature Data Type 1
  wk-schdl-2;                             !- Feature Value 1

OS:Schedule:Day,
  {5b2eeed2-2e84-4e6d-9e2b-a69b27c01b8a}, !- Handle
  dy-schdl-2,                             !- Name
  {b40d0976-802f-4371-9983-3b5b39e6c429}, !- Schedule Type Limits Name
  ,                                       !- Interpolate to Timestep
  1,                                      !- Hour 1
  0,                                      !- Minute 1
  0.15,                                   !- Value Until Time 1
  2,                                      !- Hour 2
  0,                                      !- Minute 2
  0.15,                                   !- Value Until Time 2
  3,                                      !- Hour 3
  0,                                      !- Minute 3
  0.05,                                   !- Value Until Time 3
  4,                                      !- Hour 4
  0,                                      !- Minute 4
  0,                                      !- Value Until Time 4
  5,                                      !- Hour 5
  0,                                      !- Minute 5
  0,                                      !- Value Until Time 5
  6,                                      !- Hour 6
  0,                                      !- Minute 6
  0,                                      !- Value Until Time 6
  7,                                      !- Hour 7
  0,                                      !- Minute 7
  0,                                      !- Value Until Time 7
  8,                                      !- Hour 8
  0,                                      !- Minute 8
  0.05,                                   !- Value Until Time 8
  9,                                      !- Hour 9
  0,                                      !- Minute 9
  0.05,                                   !- Value Until Time 9
  10,                                     !- Hour 10
  0,                                      !- Minute 10
  0.05,                                   !- Value Until Time 10
  11,                                     !- Hour 11
  0,                                      !- Minute 11
  0.2,                                    !- Value Until Time 11
  12,                                     !- Hour 12
  0,                                      !- Minute 12
  0.5,                                    !- Value Until Time 12
  13,                                     !- Hour 13
  0,                                      !- Minute 13
  0.8,                                    !- Value Until Time 13
  14,                                     !- Hour 14
  0,                                      !- Minute 14
  0.7,                                    !- Value Until Time 14
  15,                                     !- Hour 15
  0,                                      !- Minute 15
  0.4,                                    !- Value Until Time 15
  16,                                     !- Hour 16
  0,                                      !- Minute 16
  0.2,                                    !- Value Until Time 16
  17,                                     !- Hour 17
  0,                                      !- Minute 17
  0.25,                                   !- Value Until Time 17
  18,                                     !- Hour 18
  0,                                      !- Minute 18
  0.5,                                    !- Value Until Time 18
  19,                                     !- Hour 19
  0,                                      !- Minute 19
  0.8,                                    !- Value Until Time 19
  20,                                     !- Hour 20
  0,                                      !- Minute 20
  0.8,                                    !- Value Until Time 20
  21,                                     !- Hour 21
  0,                                      !- Minute 21
  0.8,                                    !- Value Until Time 21
  22,                                     !- Hour 22
  0,                                      !- Minute 22
  0.5,                                    !- Value Until Time 22
  23,                                     !- Hour 23
  0,                                      !- Minute 23
  0.35,                                   !- Value Until Time 23
  24,                                     !- Hour 24
  0,                                      !- Minute 24
  0.2;                                    !- Value Until Time 24

OS:AdditionalProperties,
  {28f92e78-9430-4827-81e0-8d38084d18c3}, !- Handle
  {5b2eeed2-2e84-4e6d-9e2b-a69b27c01b8a}, !- Object Name
  gbXMLId,                                !- Feature Name 1
  String,                                 !- Feature Data Type 1
  dy-schdl-2;                             !- Feature Value 1

OS:Schedule:Year,
  {1986b99c-d0eb-479f-a279-634b77490f1b}, !- Handle
  School Occupancy - 8 AM to 9 PM,        !- Name
  {b40d0976-802f-4371-9983-3b5b39e6c429}, !- Schedule Type Limits Name
  12,                                     !- Month 1
  31,                                     !- Day 1
  {f554c2bd-db2e-4cc4-9f66-88565024d1d9}; !- Week Schedule Until Date 1

OS:AdditionalProperties,
  {c57d2c3d-20c9-48d8-9b28-246b7c137cd6}, !- Handle
  {1986b99c-d0eb-479f-a279-634b77490f1b}, !- Object Name
  gbXMLId,                                !- Feature Name 1
  String,                                 !- Feature Data Type 1
  schdl-3;                                !- Feature Value 1

OS:Schedule:Week,
  {f554c2bd-db2e-4cc4-9f66-88565024d1d9}, !- Handle
  wk-schdl-3,                             !- Name
  ,                                       !- Schedule Rendering Name
  {dd168263-7a15-4b05-843b-b3caad3f6e77}, !- Sunday Schedule:Day Name
  {dd168263-7a15-4b05-843b-b3caad3f6e77}, !- Monday Schedule:Day Name
  {dd168263-7a15-4b05-843b-b3caad3f6e77}, !- Tuesday Schedule:Day Name
  {dd168263-7a15-4b05-843b-b3caad3f6e77}, !- Wednesday Schedule:Day Name
  {dd168263-7a15-4b05-843b-b3caad3f6e77}, !- Thursday Schedule:Day Name
  {dd168263-7a15-4b05-843b-b3caad3f6e77}, !- Friday Schedule:Day Name
  {dd168263-7a15-4b05-843b-b3caad3f6e77}, !- Saturday Schedule:Day Name
  {dd168263-7a15-4b05-843b-b3caad3f6e77}, !- Holiday Schedule:Day Name
  {dd168263-7a15-4b05-843b-b3caad3f6e77}, !- SummerDesignDay Schedule:Day Name
  {dd168263-7a15-4b05-843b-b3caad3f6e77}, !- WinterDesignDay Schedule:Day Name
  {dd168263-7a15-4b05-843b-b3caad3f6e77}, !- CustomDay1 Schedule:Day Name
  {dd168263-7a15-4b05-843b-b3caad3f6e77}; !- CustomDay2 Schedule:Day Name

OS:AdditionalProperties,
  {0f07fc36-7b52-4e0a-9e5a-0d90745cd4ff}, !- Handle
  {f554c2bd-db2e-4cc4-9f66-88565024d1d9}, !- Object Name
  gbXMLId,                                !- Feature Name 1
  String,                                 !- Feature Data Type 1
  wk-schdl-3;                             !- Feature Value 1

OS:Schedule:Day,
  {dd168263-7a15-4b05-843b-b3caad3f6e77}, !- Handle
  dy-schdl-3,                             !- Name
  {b40d0976-802f-4371-9983-3b5b39e6c429}, !- Schedule Type Limits Name
  ,                                       !- Interpolate to Timestep
  1,                                      !- Hour 1
  0,                                      !- Minute 1
  0,                                      !- Value Until Time 1
  2,                                      !- Hour 2
  0,                                      !- Minute 2
  0,                                      !- Value Until Time 2
  3,                                      !- Hour 3
  0,                                      !- Minute 3
  0,                                      !- Value Until Time 3
  4,                                      !- Hour 4
  0,                                      !- Minute 4
  0,                                      !- Value Until Time 4
  5,                                      !- Hour 5
  0,                                      !- Minute 5
  0,                                      !- Value Until Time 5
  6,                                      !- Hour 6
  0,                                      !- Minute 6
  0,                                      !- Value Until Time 6
  7,                                      !- Hour 7
  0,                                      !- Minute 7
  0,                                      !- Value Until Time 7
  8,                                      !- Hour 8
  0,                                      !- Minute 8
  0.05,                                   !- Value Until Time 8
  9,                                      !- Hour 9
  0,                                      !- Minute 9
  0.75,                                   !- Value Until Time 9
  10,                                     !- Hour 10
  0,                                      !- Minute 10
  0.9,                                    !- Value Until Time 10
  11,                                     !- Hour 11
  0,                                      !- Minute 11
  0.9,                                    !- Value Until Time 11
  12,                                     !- Hour 12
  0,                                      !- Minute 12
  0.8,                                    !- Value Until Time 12
  13,                                     !- Hour 13
  0,                                      !- Minute 13
  0.8,                                    !- Value Until Time 13
  14,                                     !- Hour 14
  0,                                      !- Minute 14
  0.8,                                    !- Value Until Time 14
  15,                                     !- Hour 15
  0,                                      !- Minute 15
  0.8,                                    !- Value Until Time 15
  16,                                     !- Hour 16
  0,                                      !- Minute 16
  0.45,                                   !- Value Until Time 16
  17,                                     !- Hour 17
  0,                                      !- Minute 17
  0.15,                                   !- Value Until Time 17
  18,                                     !- Hour 18
  0,                                      !- Minute 18
  0.05,                                   !- Value Until Time 18
  19,                                     !- Hour 19