
OS:Version,
  {6c83b44e-d162-47fe-a154-216aa8f715a6}, !- Handle
  0.10.2;                                 !- Version Identifier

OS:SimulationControl,
  {e96f8d1a-af2f-4c34-b795-306c83d04e48}, !- Handle
  Yes,                                    !- Do Zone Sizing Calculation
  Yes,                                    !- Do System Sizing Calculation
  ,                                       !- Do Plant Sizing Calculation
  No,                                     !- Run Simulation for Sizing Periods
  Yes;                                    !- Run Simulation for Weather File Run Periods

OS:Timestep,
  {d9b6a365-f1fa-4289-a177-85e165d12002}, !- Handle
  6;                                      !- Number of Timesteps per Hour

OS:RunPeriod,
  {b0ca3453-eff8-49b3-b90a-a40a267ebd2f}, !- Handle
  Run Period 1,                           !- Name
  1,                                      !- Begin Month
  1,                                      !- Begin Day of Month
  12,                                     !- End Month
  31,                                     !- End Day of Month
  No,                                     !- Use Weather File Holidays and Special Days
  No,                                     !- Use Weather File Daylight Saving Period
  No,                                     !- Apply Weekend Holiday Rule
  Yes,                                    !- Use Weather File Rain Indicators
  Yes,                                    !- Use Weather File Snow Indicators
  1;                                      !- Number of Times Runperiod to be Repeated

OS:SurfaceConvectionAlgorithm:Inside,
  {a9a1fc52-4009-484c-b4a4-497d68f67706}, !- Handle
  TARP;                                   !- Algorithm

OS:SurfaceConvectionAlgorithm:Outside,
  {e3c854e1-9abf-4286-88c5-de61efa01bb1}, !- Handle
  DOE-2;                                  !- Algorithm

OS:HeatBalanceAlgorithm,
  {d0c30e35-36bd-47a0-99e7-0b67fb83b5f0}, !- Handle
  ConductionTransferFunction,             !- Algorithm
  200;                                    !- Surface Temperature Upper Limit {F}

OS:ZoneAirHeatBalanceAlgorithm,
  {a7552be4-2be0-42ff-aec5-eb1101818110}, !- Handle
  AnalyticalSolution;                     !- Algorithm

OS:ConvergenceLimits,
  {e399ffde-f5c7-4ac7-a1ad-e1edf1d911e8}; !- Handle

OS:ShadowCalculation,
  {faa8d385-b0f7-4713-89d3-b18cc4bd2abc}, !- Handle
  7,                                      !- Calculation Frequency
  15000;                                  !- Maximum Figures in Shadow Overlap Calculations

OS:Site,
  {929e81d6-b12d-4166-aa9d-2d4dbd527edb}, !- Handle
  Site 1,                                 !- Name
  41.77,                                  !- Latitude {deg}
  -87.75,                                 !- Longitude {deg}
  -6,                                     !- Time Zone {hr}
  190,                                    !- Elevation {m}
  ;                                       !- Terrain

OS:Site:GroundTemperature:BuildingSurface,
  {bcd650fd-ee57-4b6a-a102-a6e6f6e9f2d7}, !- Handle
  19.527,                                 !- January Ground Temperature {C}
  19.502,                                 !- February Ground Temperature {C}
  19.536,                                 !- March Ground Temperature {C}
  19.598,                                 !- April Ground Temperature {C}
  20.002,                                 !- May Ground Temperature {C}
  21.64,                                  !- June Ground Temperature {C}
  22.225,                                 !- July Ground Temperature {C}
  22.375,                                 !- August Ground Temperature {C}
  21.449,                                 !- September Ground Temperature {C}
  20.121,                                 !- October Ground Temperature {C}
  19.802,                                 !- November Ground Temperature {C}
  19.633;                                 !- December Ground Temperature {C}

OS:Site:WaterMainsTemperature,
  {6f554fd6-4267-4e46-ac63-4da714e71e69}, !- Handle
  Correlation,                            !- Calculation Method
  ,                                       !- Temperature Schedule Name
  9.69,                                   !- Annual Average Outdoor Air Temperature {C}
  28.1;                                   !- Maximum Difference In Monthly Average Outdoor Air Temperatures {deltaC}

OS:SizingPeriod:DesignDay,
  {1e9ce1cc-e453-4c71-9c97-766cd71bd1db}, !- Handle
  Sizing Period Design Day 1,             !- Name
  -20.6,                                  !- Maximum Dry-Bulb Temperature {C}
  0,                                      !- Daily Dry-Bulb Temperature Range {deltaC}
  -20.6,                                  !- Humidity Indicating Conditions at Maximum Dry-Bulb {BasedOnField A3}
  99063,                                  !- Barometric Pressure {Pa}
  4.9,                                    !- Wind Speed {m/s}
  270,                                    !- Wind Direction {deg}
  0,                                      !- Sky Clearness
  0,                                      !- Rain Indicator
  0,                                      !- Snow Indicator
  21,                                     !- Day of Month
  1,                                      !- Month
  WinterDesignDay,                        !- Day Type
  0,                                      !- Daylight Saving Time Indicator
  WetBulb,                                !- Humidity Indicating Type
  ,                                       !- Humidity Indicating Day Schedule Name
  DefaultMultipliers,                     !- Dry-Bulb Temperature Range Modifier Type
  ,                                       !- Dry-Bulb Temperature Range Modifier Schedule Name
  AshraeClearSky;                         !- Solar Model Indicator

OS:SizingPeriod:DesignDay,
  {25f61836-2957-4801-8405-394e30c67608}, !- Handle
  Sizing Period Design Day 2,             !- Name
  33.2,                                   !- Maximum Dry-Bulb Temperature {C}
  10.7,                                   !- Daily Dry-Bulb Temperature Range {deltaC}
  23.8,                                   !- Humidity Indicating Conditions at Maximum Dry-Bulb {BasedOnField A3}
  99063,                                  !- Barometric Pressure {Pa}
  5.3,                                    !- Wind Speed {m/s}
  230,                                    !- Wind Direction {deg}
  1,                                      !- Sky Clearness
  0,                                      !- Rain Indicator
  0,                                      !- Snow Indicator
  21,                                     !- Day of Month
  7,                                      !- Month
  SummerDesignDay,                        !- Day Type
  0,                                      !- Daylight Saving Time Indicator
  WetBulb,                                !- Humidity Indicating Type
  ,                                       !- Humidity Indicating Day Schedule Name
  DefaultMultipliers,                     !- Dry-Bulb Temperature Range Modifier Type
  ,                                       !- Dry-Bulb Temperature Range Modifier Schedule Name
  AshraeClearSky;                         !- Solar Model Indicator

OS:ScheduleTypeLimits,
  {9a62c15e-35c9-4080-b804-5c903db3088c}, !- Handle
  Temperature,                            !- Name
  -60,                                    !- Lower Limit Value {BasedOnField A4}
  200,                                    !- Upper Limit Value {BasedOnField A4}
  CONTINUOUS,                             !- Numeric Type
  Temperature;                            !- Unit Type

OS:DefaultScheduleSet,
  {b758163b-713e-48bb-9ee1-1cc544e7885a}, !- Handle
  Default Schedules,                      !- Name
  ,                                       !- Hours of Operation Schedule Name
  {d85b1c7a-a1db-46a5-b013-4644caff03e9}, !- Number of People Schedule Name
  {89558516-7418-4d88-a14b-d49fe1e7b8f5}, !- People Activity Level Schedule Name
  {c8871f7d-3fd3-42a4-a84c-97375ca5a8b0}, !- Lighting Schedule Name
  {3404aaac-b5df-4cc9-8562-59436f097a75}, !- Electric Equipment Schedule Name
  {baf5c387-7dd8-4248-8177-13facd19d9ca}, !- Gas Equipment Schedule Name
  {007966e4-f431-458b-acd4-9cae4bc304fa}, !- Hot Water Equipment Schedule Name
  {a3f470af-7f44-48fe-a30c-1213468b8ff3}, !- Infiltration Schedule Name
  ,                                       !- Steam Equipment Schedule Name
  ;                                       !- Other Equipment Schedule Name

OS:Schedule:Ruleset,
  {d85b1c7a-a1db-46a5-b013-4644caff03e9}, !- Handle
  Medium Office Number of People Schedule, !- Name
  {836a4b18-500c-41b9-ab52-d9f022a1144e}, !- Schedule Type Limits Name
  {dbbd8896-8323-416f-acb1-9ab1bc1b36b2}, !- Default Day Schedule Name
  {cbb5fa99-3add-4af9-b2bf-c5ddb0bd6b19}; !- Summer Design Day Schedule Name

OS:Schedule:Day,
  {dbbd8896-8323-416f-acb1-9ab1bc1b36b2}, !- Handle
  Medium Office Number of People All Other Days Schedule, !- Name
  {836a4b18-500c-41b9-ab52-d9f022a1144e}, !- Schedule Type Limits Name
  ,                                       !- Interpolate to Timestep
  24,                                     !- Hour 1
  0,                                      !- Minute 1
  0;                                      !- Value Until Time 1

OS:Schedule:Day,
  {bb309e5d-9cda-41ec-aa1a-df88215539b3}, !- Handle
  Medium Office Number of People Summer Design Day Schedule, !- Name
  ,                                       !- Schedule Type Limits Name
  ,                                       !- Interpolate to Timestep
  6,                                      !- Hour 1
  0,                                      !- Minute 1
  0,                                      !- Value Until Time 1
  22,                                     !- Hour 2
  0,                                      !- Minute 2
  1,                                      !- Value Until Time 2
  24,                                     !- Hour 3
  0,                                      !- Minute 3
  0.05;                                   !- Value Until Time 3

OS:Schedule:Day,
  {cbb5fa99-3add-4af9-b2bf-c5ddb0bd6b19}, !- Handle
  Medium Office Number of People Summer Design Day Schedule 1, !- Name
  {836a4b18-500c-41b9-ab52-d9f022a1144e}, !- Schedule Type Limits Name
  ,                                       !- Interpolate to Timestep
  6,                                      !- Hour 1
  0,                                      !- Minute 1
  0,                                      !- Value Until Time 1
  22,                                     !- Hour 2
  0,                                      !- Minute 2
  1,                                      !- Value Until Time 2
  24,                                     !- Hour 3
  0,                                      !- Minute 3
  0.05;                                   !- Value Until Time 3

OS:Schedule:Rule,
  {849ddbc3-c98a-4082-a2ea-0b260f1ddfe0}, !- Handle
  Medium Office Number of People Schedule Weekdays Rule, !- Name
  {d85b1c7a-a1db-46a5-b013-4644caff03e9}, !- Schedule Ruleset Name
  1,                                      !- Rule Order
  {5b319074-e4b6-4c84-a2b6-adb0cc8f2124}, !- Day Schedule Name
  ,                                       !- Apply Sunday
  Yes,                                    !- Apply Monday
  Yes,                                    !- Apply Tuesday
  Yes,                                    !- Apply Wednesday
  Yes,                                    !- Apply Thursday
  Yes;                                    !- Apply Friday

OS:Schedule:Day,
  {5b319074-e4b6-4c84-a2b6-adb0cc8f2124}, !- Handle
  Medium Office Number of People Weekdays Schedule, !- Name
  {836a4b18-500c-41b9-ab52-d9f022a1144e}, !- Schedule Type Limits Name
  ,                                       !- Interpolate to Timestep
  6,                                      !- Hour 1
  0,                                      !- Minute 1
  0,                                      !- Value Until Time 1
  7,                                      !- Hour 2
  0,                                      !- Minute 2
  0.1,                                    !- Value Until Time 2
  8,                                      !- Hour 3
  0,                                      !- Minute 3
  0.2,                                    !- Value Until Time 3
  12,                                     !- Hour 4
  0,                                      !- Minute 4
  0.95,                                   !- Value Until Time 4
  13,                                     !- Hour 5
  0,                                      !- Minute 5
  0.5,                                    !- Value Until Time 5
  17,                                     !- Hour 6
  0,                                      !- Minute 6
  0.95,                                   !- Value Until Time 6
  18,                                     !- Hour 7
  0,                                      !- Minute 7
  0.7,                                    !- Value Until Time 7
  20,                                     !- Hour 8
  0,                                      !- Minute 8
  0.4,                                    !- Value Until Time 8
  22,                                     !- Hour 9
  0,                                      !- Minute 9
  0.1,                                    !- Value Until Time 9
  24,                                     !- Hour 10
  0,                                      !- Minute 10
  0.05;                                   !- Value Until Time 10

OS:Schedule:Rule,
  {2d775a55-3728-4a2a-9051-3a006ba628a8}, !- Handle
  Medium Office Number of People Schedule Saturday Rule, !- Name
  {d85b1c7a-a1db-46a5-b013-4644caff03e9}, !- Schedule Ruleset Name
  0,                                      !- Rule Order
  {3dc5408e-20f5-421b-9b96-4e85aed5e91d}, !- Day Schedule Name
  ,                                       !- Apply Sunday
  ,                                       !- Apply Monday
  ,                                       !- Apply Tuesday
  ,                                       !- Apply Wednesday
  ,                                       !- Apply Thursday
  ,                                       !- Apply Friday
  Yes;                                    !- Apply Saturday

OS:Schedule:Day,
  {3dc5408e-20f5-421b-9b96-4e85aed5e91d}, !- Handle
  Medium Office Number of People Saturday Schedule, !- Name
  {836a4b18-500c-41b9-ab52-d9f022a1144e}, !- Schedule Type Limits Name
  ,                                       !- Interpolate to Timestep
  6,                                      !- Hour 1
  0,                                      !- Minute 1
  0,                                      !- Value Until Time 1
  8,                                      !- Hour 2
  0,                                      !- Minute 2
  0.1,                                    !- Value Until Time 2
  14,                                     !- Hour 3
  0,                                      !- Minute 3
  0.5,                                    !- Value Until Time 3
  17,                                     !- Hour 4
  0,                                      !- Minute 4
  0.1,                                    !- Value Until Time 4
  24,                                     !- Hour 5
  0,                                      !- Minute 5
  0;                                      !- Value Until Time 5

OS:ScheduleTypeLimits,
  {836a4b18-500c-41b9-ab52-d9f022a1144e}, !- Handle
  Fractional,                             !- Name
  0,                                      !- Lower Limit Value {BasedOnField A4}
  1,                                      !- Upper Limit Value {BasedOnField A4}
  Continuous;                             !- Numeric Type

OS:Schedule:Ruleset,
  {89558516-7418-4d88-a14b-d49fe1e7b8f5}, !- Handle
  Medium Office People Activity Level Schedule, !- Name
  {cb062211-c54c-46ec-a859-257d3a1557fc}, !- Schedule Type Limits Name
  {be443af2-6bb0-4d9d-b43e-e56681833fef}; !- Default Day Schedule Name

OS:Schedule:Day,
  {be443af2-6bb0-4d9d-b43e-e56681833fef}, !- Handle
  Medium Office People Activity Level All Days Schedule, !- Name
  {cb062211-c54c-46ec-a859-257d3a1557fc}, !- Schedule Type Limits Name
  ,                                       !- Interpolate to Timestep
  24,                                     !- Hour 1
  0,                                      !- Minute 1
  120;                                    !- Value Until Time 1

OS:ScheduleTypeLimits,
  {cb062211-c54c-46ec-a859-257d3a1557fc}, !- Handle
  ActivityLevel,                          !- Name
  0,                                      !- Lower Limit Value {BasedOnField A4}
  ,                                       !- Upper Limit Value {BasedOnField A4}
  Continuous,                             !- Numeric Type
  ActivityLevel;                          !- Unit Type

OS:Schedule:Ruleset,
  {c8871f7d-3fd3-42a4-a84c-97375ca5a8b0}, !- Handle
  Medium Office Lighting Schedule,        !- Name
  {836a4b18-500c-41b9-ab52-d9f022a1144e}, !- Schedule Type Limits Name
  {39945900-4835-48d7-90aa-e217582db048}, !- Default Day Schedule Name
  {dd5a1ec5-9127-4a4e-8f83-4da2b5994eb3}, !- Summer Design Day Schedule Name
  {1778d988-c89b-41b4-8851-7396f14218c4}; !- Winter Design Day Schedule Name

OS:Schedule:Day,
  {39945900-4835-48d7-90aa-e217582db048}, !- Handle
  Medium Office Lighting All Other Days Schedule, !- Name
  {836a4b18-500c-41b9-ab52-d9f022a1144e}, !- Schedule Type Limits Name
  ,                                       !- Interpolate to Timestep
  24,                                     !- Hour 1
  0,                                      !- Minute 1
  0.05;                                   !- Value Until Time 1

OS:Schedule:Day,
  {3bad6648-971f-4d13-b584-26cfac3d3801}, !- Handle
  Medium Office Lighting Summer Design Day Schedule, !- Name
  ,                                       !- Schedule Type Limits Name
  ,                                       !- Interpolate to Timestep
  6,                                      !- Hour 1
  0,                                      !- Minute 1
  1,                                      !- Value Until Time 1
  24,                                     !- Hour 2
  0,                                      !- Minute 2
  0;                                      !- Value Until Time 2

OS:Schedule:Day,
  {dd5a1ec5-9127-4a4e-8f83-4da2b5994eb3}, !- Handle
  Medium Office Lighting Summer Design Day Schedule 1, !- Name
  {836a4b18-500c-41b9-ab52-d9f022a1144e}, !- Schedule Type Limits Name
  ,                                       !- Interpolate to Timestep
  6,                                      !- Hour 1
  0,                                      !- Minute 1
  1,                                      !- Value Until Time 1
  24,                                     !- Hour 2
  0,                                      !- Minute 2
  0;                                      !- Value Until Time 2

OS:Schedule:Day,
  {a4885a36-eaa6-48c8-a204-a7dedd41bdd0}, !- Handle
  Medium Office Lighting Winter Design Day Schedule, !- Name
  ,                                       !- Schedule Type Limits Name
  ,                                       !- Interpolate to Timestep
  24,                                     !- Hour 1
  0,                                      !- Minute 1
  0;                                      !- Value Until Time 1

OS:Schedule:Day,
  {1778d988-c89b-41b4-8851-7396f14218c4}, !- Handle
  Medium Office Lighting Winter Design Day Schedule 1, !- Name
  {836a4b18-500c-41b9-ab52-d9f022a1144e}, !- Schedule Type Limits Name
  ,                                       !- Interpolate to Timestep
  24,                                     !- Hour 1
  0,                                      !- Minute 1
  0;                                      !- Value Until Time 1

OS:Schedule:Rule,
  {2cdf8f65-0a8b-4608-8d65-8b1a80a6b0d2}, !- Handle
  Medium Office Lighting Schedule Weekdays Rule, !- Name
  {c8871f7d-3fd3-42a4-a84c-97375ca5a8b0}, !- Schedule Ruleset Name
  1,                                      !- Rule Order
  {3f9d3c94-1895-4d3c-8b76-094003759b34}, !- Day Schedule Name
  ,                                       !- Apply Sunday
  Yes,                                    !- Apply Monday
  Yes,                                    !- Apply Tuesday
  Yes,                                    !- Apply Wednesday
  Yes,                                    !- Apply Thursday
  Yes;                                    !- Apply Friday

OS:Schedule:Day,
  {3f9d3c94-1895-4d3c-8b76-094003759b34}, !- Handle
  Medium Office Lighting Weekdays Schedule, !- Name
  {836a4b18-500c-41b9-ab52-d9f022a1144e}, !- Schedule Type Limits Name
  ,                                       !- Interpolate to Timestep
  5,                                      !- Hour 1
  0,                                      !- Minute 1
  0.05,                                   !- Value Until Time 1
  7,                                      !- Hour 2
  0,                                      !- Minute 2
  0.1,                                    !- Value Until Time 2
  8,                                      !- Hour 3
  0,                                      !- Minute 3
  0.3,                                    !- Value Until Time 3
  17,                                     !- Hour 4
  0,                                      !- Minute 4
  0.9,                                    !- Value Until Time 4
  18,                                     !- Hour 5
  0,                                      !- Minute 5
  0.7,                                    !- Value Until Time 5
  20,                                     !- Hour 6
  0,                                      !- Minute 6
  0.5,                                    !- Value Until Time 6
  22,                                     !- Hour 7
  0,                                      !- Minute 7
  0.3,                                    !- Value Until Time 7
  23,                                     !- Hour 8
  0,                                      !- Minute 8
  0.1,                                    !- Value Until Time 8
  24,                                     !- Hour 9
  0,                                      !- Minute 9
  0.05;                                   !- Value Until Time 9

OS:Schedule:Rule,
  {e1b229e2-271c-4471-b98c-f20649fb1d57}, !- Handle
  Medium Office Lighting Schedule Saturday Rule, !- Name
  {c8871f7d-3fd3-42a4-a84c-97375ca5a8b0}, !- Schedule Ruleset Name
  0,                                      !- Rule Order
  {04de6119-1e9e-41bc-b40b-a55e12c98a87}, !- Day Schedule Name
  ,                                       !- Apply Sunday
  ,                                       !- Apply Monday
  ,                                       !- Apply Tuesday
  ,                                       !- Apply Wednesday
  ,                                       !- Apply Thursday
  ,                                       !- Apply Friday
  Yes;                                    !- Apply Saturday

OS:Schedule:Day,
  {04de6119-1e9e-41bc-b40b-a55e12c98a87}, !- Handle
  Medium Office Lighting Saturday Schedule, !- Name
  {836a4b18-500c-41b9-ab52-d9f022a1144e}, !- Schedule Type Limits Name
  ,                                       !- Interpolate to Timestep
  6,                                      !- Hour 1
  0,                                      !- Minute 1
  0.05,                                   !- Value Until Time 1
  8,                                      !- Hour 2
  0,                                      !- Minute 2
  0.1,                                    !- Value Until Time 2
  14,                                     !- Hour 3
  0,                                      !- Minute 3
  0.5,                                    !- Value Until Time 3
  17,                                     !- Hour 4
  0,                                      !- Minute 4
  0.15,                                   !- Value Until Time 4
  24,                                     !- Hour 5
  0,                                      !- Minute 5
  0.05;                                   !- Value Until Time 5

OS:Schedule:Ruleset,
  {3404aaac-b5df-4cc9-8562-59436f097a75}, !- Handle
  Medium Office Electric Equipment Schedule, !- Name
  {836a4b18-500c-41b9-ab52-d9f022a1144e}, !- Schedule Type Limits Name
  {8f6b2f6c-7fe2-497b-93bc-13bc5303b200}, !- Default Day Schedule Name
  {e06bd4fa-b22a-4c9c-b993-8e93ab184cc7}, !- Summer Design Day Schedule Name
  {fd341e2d-45c8-4800-a946-6e9b0f5e4186}; !- Winter Design Day Schedule Name

OS:Schedule:Day,
  {8f6b2f6c-7fe2-497b-93bc-13bc5303b200}, !- Handle
  Medium Office Electric Equipment All Other Days Schedule, !- Name
  {836a4b18-500c-41b9-ab52-d9f022a1144e}, !- Schedule Type Limits Name
  ,                                       !- Interpolate to Timestep
  24,                                     !- Hour 1
  0,                                      !- Minute 1
  0.3;                                    !- Value Until Time 1

OS:Schedule:Day,
  {39b89711-5ae4-4323-b914-fa13dcb266e9}, !- Handle
  Medium Office Electric Equipment Summer Design Day Schedule, !- Name
  ,                                       !- Schedule Type Limits Name
  ,                                       !- Interpolate to Timestep
  6,                                      !- Hour 1
  0,                                      !- Minute 1
  1,                                      !- Value Until Time 1
  24,                                     !- Hour 2
  0,                                      !- Minute 2
  0;                                      !- Value Until Time 2

OS:Schedule:Day,
  {e06bd4fa-b22a-4c9c-b993-8e93ab184cc7}, !- Handle
  Medium Office Electric Equipment Summer Design Day Schedule 1, !- Name
  {836a4b18-500c-41b9-ab52-d9f022a1144e}, !- Schedule Type Limits Name
  ,                                       !- Interpolate to Timestep
  6,                                      !- Hour 1
  0,                                      !- Minute 1
  1,                                      !- Value Until Time 1
  24,                                     !- Hour 2
  0,                                      !- Minute 2
  0;                                      !- Value Until Time 2

OS:Schedule:Day,
  {5e0185be-d333-4af1-9f5d-77d75f9c7f8a}, !- Handle
  Medium Office Electric Equipment Winter Design Day Schedule, !- Name
  ,                                       !- Schedule Type Limits Name
  ,                                       !- Interpolate to Timestep
  24,                                     !- Hour 1
  0,                                      !- Minute 1
  0;                                      !- Value Until Time 1

OS:Schedule:Day,
  {fd341e2d-45c8-4800-a946-6e9b0f5e4186}, !- Handle
  Medium Office Electric Equipment Winter Design Day Schedule 1, !- Name
  {836a4b18-500c-41b9-ab52-d9f022a1144e}, !- Schedule Type Limits Name
  ,                                       !- Interpolate to Timestep
  24,                                     !- Hour 1
  0,                                      !- Minute 1
  0;                                      !- Value Until Time 1

OS:Schedule:Rule,
  {37863991-d3f9-4b0d-ae97-534f70cd0e13}, !- Handle
  Medium Office Electric Equipment Schedule Weekdays Rule, !- Name
  {3404aaac-b5df-4cc9-8562-59436f097a75}, !- Schedule Ruleset Name
  1,                                      !- Rule Order
  {6256752f-554f-4a75-90f4-8a9bd78759da}, !- Day Schedule Name
  ,                                       !- Apply Sunday
  Yes,                                    !- Apply Monday
  Yes,                                    !- Apply Tuesday
  Yes,                                    !- Apply Wednesday
  Yes,                                    !- Apply Thursday
  Yes;                                    !- Apply Friday

OS:Schedule:Day,
  {6256752f-554f-4a75-90f4-8a9bd78759da}, !- Handle
  Medium Office Electric Equipment Weekdays Schedule, !- Name
  {836a4b18-500c-41b9-ab52-d9f022a1144e}, !- Schedule Type Limits Name
  ,                                       !- Interpolate to Timestep
  8,                                      !- Hour 1
  0,                                      !- Minute 1
  0.4,                                    !- Value Until Time 1
  12,                                     !- Hour 2
  0,                                      !- Minute 2
  0.9,                                    !- Value Until Time 2
  13,                                     !- Hour 3
  0,                                      !- Minute 3
  0.8,                                    !- Value Until Time 3
  17,                                     !- Hour 4
  0,                                      !- Minute 4
  0.9,                                    !- Value Until Time 4
  18,                                     !- Hour 5
  0,                                      !- Minute 5
  0.8,                                    !- Value Until Time 5
  20,                                     !- Hour 6
  0,                                      !- Minute 6
  0.6,                                    !- Value Until Time 6
  22,                                     !- Hour 7
  0,                                      !- Minute 7
  0.5,                                    !- Value Until Time 7
  24,                                     !- Hour 8
  0,                                      !- Minute 8
  0.4;                                    !- Value Until Time 8

OS:Schedule:Rule,
  {c63c7022-61c9-42ce-8060-a17781af416e}, !- Handle
  Medium Office Electric Equipment Schedule Saturday Rule, !- Name
  {3404aaac-b5df-4cc9-8562-59436f097a75}, !- Schedule Ruleset Name
  0,                                      !- Rule Order
  {793088fd-08fe-4b27-b542-4019fe5d45b3}, !- Day Schedule Name
  ,                                       !- Apply Sunday
  ,                                       !- Apply Monday
  ,                                       !- Apply Tuesday
  ,                                       !- Apply Wednesday