! The source of the values for the following objects is:
!
!    NISTIR 85-3273-25
!
!    ENERGY PRICE INDICES AND DISCOUNT FACTORS
!    FOR LIFE-CYCLE COST ANALYSIS
!
!    Annual Supplement to NIST Handbook 135 and NBS Special Publication 709
!
!    April 1, 2010 to March 31, 2011
!
!    Data for the Federal Methodology for Life-Cycle Cost Analysis, Title 10, CFR, Part 436, Subpart A;
!    and for the Energy Conservation Mandatory Performance Standards for New Federal Residential Buildings,
!    Title 10, CFR, Part 435
!
!    Amy S. Rushing
!    Joshua D. Kneifel
!    Barbara C. Lippiatt
!
! These are factors for the United States and regions of the United States.
!
! The factors are from a file available upon request from NIST called ENCOSTxx.TXT and are
! converted into EnergyPlus objects using a spreadsheet called ConvertENCOSTtoEnergyPlusLifeCycleCost.xls
! which is available upon request.

  Version,24.2;

  LifeCycleCost:UsePriceEscalation,
    NorthEast  Residential-Electricity,  !- LCC Price Escalation Name
    Electricity,             !- Resource
    2011,                    !- Escalation Start Year
    January,                 !- Escalation Start Month
    1.0171,                  !- Year 1 Escalation
    1.0328,                  !- Year 2 Escalation
    1.0324,                  !- Year 3 Escalation
    1.0283,                  !- Year 4 Escalation
    1.0160,                  !- Year 5 Escalation
    1.0048,                  !- Year 6 Escalation
    0.9944,                  !- Year 7 Escalation
    0.9870,                  !- Year 8 Escalation
    0.9845,                  !- Year 9 Escalation
    0.9780,                  !- <none>
    0.9696,                  !- <none>
    0.9611,                  !- <none>
    0.9540,                  !- <none>
    0.9486,                  !- <none>
    0.9410,                  !- <none>
    0.9337,                  !- <none>
    0.9274,                  !- <none>
    0.9223,                  !- <none>
    0.9184,                  !- <none>
    0.9164,                  !- <none>
    0.9184,                  !- <none>
    0.9208,                  !- <none>
    0.9249,                  !- <none>
    0.9287,                  !- <none>
    0.9272,                  !- <none>
    0.9236,                  !- <none>
    0.9201,                  !- <none>
    0.9166,                  !- <none>
    0.9132,                  !- <none>
    0.9097;                  !- <none>

  LifeCycleCost:UsePriceEscalation,
    NorthEast  Residential-Distillate Oil,  !- LCC Price Escalation Name
    FuelOilNo1,              !- Resource
    2011,                    !- Escalation Start Year
    January,                 !- Escalation Start Month
    0.9559,                  !- Year 1 Escalation
    0.9512,                  !- Year 2 Escalation
    0.9698,                  !- Year 3 Escalation
    0.9893,                  !- Year 4 Escalation
    1.0242,                  !- Year 5 Escalation
    1.0595,                  !- Year 6 Escalation
    1.0906,                  !- Year 7 Escalation
    1.1185,                  !- Year 8 Escalation
    1.1371,                  !- Year 9 Escalation
    1.1515,                  !- <none>
    1.1705,                  !- <none>
    1.1826,                  !- <none>
    1.2031,                  !- <none>
    1.2161,                  !- <none>
    1.2263,                  !- <none>
    1.2402,                  !- <none>
    1.2509,                  !- <none>
    1.2639,                  !- <none>
    1.2649,                  !- <none>
    1.2672,                  !- <none>
    1.2718,                  !- <none>
    1.2751,                  !- <none>
    1.2825,                  !- <none>
    1.2895,                  !- <none>
    1.2932,                  !- <none>
    1.2960,                  !- <none>
    1.2993,                  !- <none>
    1.3020,                  !- <none>
    1.3048,                  !- <none>
    1.3081;                  !- <none>

  LifeCycleCost:UsePriceEscalation,
    NorthEast  Residential-Natural gas,  !- LCC Price Escalation Name
    NaturalGas,              !- Resource
    2011,                    !- Escalation Start Year
    January,                 !- Escalation Start Month
    0.9736,                  !- Year 1 Escalation
    0.9645,                  !- Year 2 Escalation
    0.9480,                  !- Year 3 Escalation
    0.9472,                  !- Year 4 Escalation
    0.9538,                  !- Year 5 Escalation
    0.9620,                  !- Year 6 Escalation
    0.9728,                  !- Year 7 Escalation
    0.9868,                  !- Year 8 Escalation
    1.0025,                  !- Year 9 Escalation
    1.0182,                  !- <none>
    1.0330,                  !- <none>
    1.0470,                  !- <none>
    1.0602,                  !- <none>
    1.0743,                  !- <none>
    1.0866,                  !- <none>
    1.1007,                  !- <none>
    1.1122,                  !- <none>
    1.1254,                  !- <none>
    1.1378,                  !- <none>
    1.1502,                  !- <none>
    1.1617,                  !- <none>
    1.1733,                  !- <none>
    1.1840,                  !- <none>
    1.1947,                  !- <none>
    1.2063,                  !- <none>
    1.2186,                  !- <none>
    1.2302,                  !- <none>
    1.2434,                  !- <none>
    1.2558,                  !- <none>
    1.2690;                  !- <none>

  LifeCycleCost:UsePriceEscalation,
    NorthEast  Residential-LPG,  !- LCC Price Escalation Name
    Propane,                 !- Resource
    2011,                    !- Escalation Start Year
    January,                 !- Escalation Start Month
    1.0380,                  !- Year 1 Escalation
    1.0611,                  !- Year 2 Escalation
    1.0760,                  !- Year 3 Escalation
    1.0883,                  !- Year 4 Escalation
    1.1017,                  !- Year 5 Escalation
    1.1185,                  !- Year 6 Escalation
    1.1354,                  !- Year 7 Escalation
    1.1513,                  !- Year 8 Escalation
    1.1656,                  !- Year 9 Escalation
    1.1793,                  !- <none>
    1.1906,                  !- <none>
    1.2017,                  !- <none>
    1.2118,                  !- <none>
    1.2209,                  !- <none>
    1.2296,                  !- <none>
    1.2371,                  !- <none>
    1.2433,                  !- <none>
    1.2488,                  !- <none>
    1.2530,                  !- <none>
    1.2556,                  !- <none>
    1.2566,                  !- <none>
    1.2576,                  !- <none>
    1.2576,                  !- <none>
    1.2576,                  !- <none>
    1.2589,                  !- <none>
    1.2611,                  !- <none>
    1.2631,                  !- <none>
    1.2650,                  !- <none>
    1.2673,                  !- <none>
    1.2692;                  !- <none>

  LifeCycleCost:UsePriceEscalation,
    NorthEast  Commercial-Electricity,  !- LCC Price Escalation Name
    Electricity,             !- Resource
    2011,                    !- Escalation Start Year
    January,                 !- Escalation Start Month
    0.9565,                  !- Year 1 Escalation
    0.9280,                  !- Year 2 Escalation
    0.9118,                  !- Year 3 Escalation
    0.9083,                  !- Year 4 Escalation
    0.9039,                  !- Year 5 Escalation
    0.9033,                  !- Year 6 Escalation
    0.9042,                  !- Year 7 Escalation
    0.9105,                  !- Year 8 Escalation
    0.9231,                  !- Year 9 Escalation
    0.9315,                  !- <none>
    0.9365,                  !- <none>
    0.9392,                  !- <none>
    0.9411,                  !- <none>
    0.9436,                  !- <none>
    0.9411,                  !- <none>
    0.9387,                  !- <none>
    0.9367,                  !- <none>
    0.9343,                  !- <none>
    0.9332,                  !- <none>
    0.9335,                  !- <none>
    0.9367,                  !- <none>
    0.9400,                  !- <none>
    0.9452,                  !- <none>
    0.9510,                  !- <none>
    0.9496,                  !- <none>
    0.9455,                  !- <none>
    0.9417,                  !- <none>
    0.9378,                  !- <none>
    0.9337,                  !- <none>
    0.9299;                  !- <none>

  LifeCycleCost:UsePriceEscalation,
    NorthEast  Commercial-Distillate Oil,  !- LCC Price Escalation Name
    FuelOilNo1,              !- Resource
    2011,                    !- Escalation Start Year
    January,                 !- Escalation Start Month
    1.0000,                  !- Year 1 Escalation
    1.0111,                  !- Year 2 Escalation
    1.0323,                  !- Year 3 Escalation
    1.0551,                  !- Year 4 Escalation
    1.0948,                  !- Year 5 Escalation
    1.1351,                  !- Year 6 Escalation
    1.1706,                  !- Year 7 Escalation
    1.2023,                  !- Year 8 Escalation
    1.2235,                  !- Year 9 Escalation
    1.2405,                  !- <none>
    1.2654,                  !- <none>
    1.2786,                  !- <none>
    1.3024,                  !- <none>
    1.3167,                  !- <none>
    1.3273,                  !- <none>
    1.3443,                  !- <none>
    1.3559,                  !- <none>
    1.3718,                  !- <none>
    1.3697,                  !- <none>
    1.3718,                  !- <none>
    1.3771,                  !- <none>
    1.3803,                  !- <none>
    1.3893,                  !- <none>
    1.3972,                  !- <none>
    1.4015,                  !- <none>
    1.4047,                  !- <none>
    1.4078,                  !- <none>
    1.4115,                  !- <none>
    1.4147,                  !- <none>
    1.4179;                  !- <none>

  LifeCycleCost:UsePriceEscalation,
    NorthEast  Commercial-Residual Oil,  !- LCC Price Escalation Name
    FuelOilNo2,              !- Resource
    2011,                    !- Escalation Start Year
    January,                 !- Escalation Start Month
    0.8291,                  !- Year 1 Escalation
    0.8020,                  !- Year 2 Escalation
    0.8439,                  !- Year 3 Escalation
    0.8750,                  !- Year 4 Escalation
    0.9047,                  !- Year 5 Escalation
    0.9358,                  !- Year 6 Escalation
    0.9655,                  !- Year 7 Escalation
    0.9818,                  !- Year 8 Escalation
    1.0054,                  !- Year 9 Escalation
    1.0297,                  !- <none>
    1.0608,                  !- <none>
    1.1041,                  !- <none>
    1.1257,                  !- <none>
    1.1378,                  !- <none>
    1.1493,                  !- <none>
    1.1601,                  !- <none>
    1.1696,                  !- <none>
    1.1784,                  !- <none>
    1.1831,                  !- <none>
    1.1892,                  !- <none>
    1.1912,                  !- <none>
    1.1980,                  !- <none>
    1.2061,                  !- <none>
    1.2155,                  !- <none>
    1.2209,                  !- <none>
    1.2250,                  !- <none>
    1.2297,                  !- <none>
    1.2338,                  !- <none>
    1.2385,                  !- <none>
    1.2426;                  !- <none>

  LifeCycleCost:UsePriceEscalation,
    NorthEast  Commercial-Natural gas,  !- LCC Price Escalation Name
    NaturalGas,              !- Resource
    2011,                    !- Escalation Start Year
    January,                 !- Escalation Start Month
    0.9822,                  !- Year 1 Escalation
    0.9509,                  !- Year 2 Escalation
    0.9122,                  !- Year 3 Escalation
    0.9007,                  !- Year 4 Escalation
    0.9039,                  !- Year 5 Escalation
    0.9091,                  !- Year 6 Escalation
    0.9164,                  !- Year 7 Escalation
    0.9279,                  !- Year 8 Escalation
    0.9415,                  !- Year 9 Escalation
    0.9540,                  !- <none>
    0.9655,                  !- <none>
    0.9781,                  !- <none>
    0.9906,                  !- <none>
    1.0031,                  !- <none>
    1.0125,                  !- <none>
    1.0230,                  !- <none>
    1.0334,                  !- <none>
    1.0428,                  !- <none>
    1.0522,                  !- <none>
    1.0627,                  !- <none>
    1.0711,                  !- <none>
    1.0794,                  !- <none>
    1.0857,                  !- <none>
    1.0940,                  !- <none>
    1.1066,                  !- <none>
    1.1212,                  !- <none>
    1.1369,                  !- <none>
    1.1526,                  !- <none>
    1.1682,                  !- <none>
    1.1850;                  !- <none>

  LifeCycleCost:UsePriceEscalation,
    NorthEast  Commercial-Coal,  !- LCC Price Escalation Name
    Coal,                    !- Resource
    2011,                    !- Escalation Start Year
    January,                 !- Escalation Start Month
    1.0290,                  !- Year 1 Escalation
    1.0435,                  !- Year 2 Escalation
    1.0399,                  !- Year 3 Escalation
    1.0362,                  !- Year 4 Escalation
    1.0399,                  !- Year 5 Escalation
    1.0435,                  !- Year 6 Escalation
    1.0435,                  !- Year 7 Escalation
    1.0471,                  !- Year 8 Escalation
    1.0471,                  !- Year 9 Escalation
    1.0507,                  !- <none>
    1.0543,                  !- <none>
    1.0580,                  !- <none>
    1.0543,                  !- <none>
    1.0580,                  !- <none>
    1.0652,                  !- <none>
    1.0725,                  !- <none>
    1.0761,                  !- <none>
    1.0870,                  !- <none>
    1.0906,                  !- <none>
    1.0942,                  !- <none>
    1.0978,                  !- <none>
    1.1051,                  !- <none>
    1.1087,                  !- <none>
    1.1159,                  !- <none>
    1.1196,                  !- <none>
    1.1232,                  !- <none>
    1.1268,                  !- <none>
    1.1268,                  !- <none>
    1.1304,                  !- <none>
    1.1341;                  !- <none>

  LifeCycleCost:UsePriceEscalation,
    NorthEast  Industrial-Electricity,  !- LCC Price Escalation Name
    Electricity,             !- Resource
    2011,                    !- Escalation Start Year
    January,                 !- Escalation Start Month
    0.9469,                  !- Year 1 Escalation
    0.9302,                  !- Year 2 Escalation
    0.9206,                  !- Year 3 Escalation
    0.9247,                  !- Year 4 Escalation
    0.9297,                  !- Year 5 Escalation
    0.9403,                  !- Year 6 Escalation
    0.9525,                  !- Year 7 Escalation
    0.9707,                  !- Year 8 Escalation
    0.9970,                  !- Year 9 Escalation
    1.0182,                  !- <none>
    1.0329,                  !- <none>
    1.0465,                  !- <none>
    1.0581,                  !- <none>
    1.0698,                  !- <none>
    1.0748,                  !- <none>
    1.0789,                  !- <none>
    1.0844,                  !- <none>
    1.0905,                  !- <none>
    1.1001,                  !- <none>
    1.1062,                  !- <none>
    1.1138,                  !- <none>
    1.1213,                  !- <none>
    1.1314,                  !- <none>
    1.1421,                  !- <none>
    1.1456,                  !- <none>
    1.1466,                  !- <none>
    1.1476,                  !- <none>
    1.1481,                  !- <none>
    1.1491,                  !- <none>
    1.1502;                  !- <none>

  LifeCycleCost:UsePriceEscalation,
    NorthEast  Industrial-Distillate Oil,  !- LCC Price Escalation Name
    FuelOilNo1,              !- Resource
    2011,                    !- Escalation Start Year
    January,                 !- Escalation Start Month
    1.0036,                  !- Year 1 Escalation
    1.0155,                  !- Year 2 Escalation
    1.0362,                  !- Year 3 Escalation
    1.0584,                  !- Year 4 Escalation
    1.0967,                  !- Year 5 Escalation
    1.1365,                  !- Year 6 Escalation
    1.1711,                  !- Year 7 Escalation
    1.2022,                  !- Year 8 Escalation
    1.2229,                  !- Year 9 Escalation
    1.2394,                  !- <none>
    1.2642,                  !- <none>
    1.2777,                  !- <none>
    1.3014,                  !- <none>
    1.3154,                  !- <none>
    1.3257,                  !- <none>
    1.3423,                  !- <none>
    1.3537,                  !- <none>
    1.3697,                  !- <none>
    1.3671,                  !- <none>
    1.3687,                  !- <none>
    1.3738,                  !- <none>
    1.3769,                  !- <none>
    1.3857,                  !- <none>
    1.3935,                  !- <none>
    1.3976,                  !- <none>
    1.4007,                  !- <none>
    1.4043,                  !- <none>
    1.4074,                  !- <none>
    1.4105,                  !- <none>
    1.4142;                  !- <none>

  LifeCycleCost:UsePriceEscalation,
    NorthEast  Industrial-Residual Oil,  !- LCC Price Escalation Name
    FuelOilNo2,              !- Resource
    2011,                    !- Escalation Start Year
    January,                 !- Escalation Start Month
    0.9896,                  !- Year 1 Escalation
    0.9952,                  !- Year 2 Escalation
    1.0339,                  !- Year 3 Escalation
    1.0664,                  !- Year 4 Escalation
    1.0990,                  !- Year 5 Escalation
    1.1322,                  !- Year 6 Escalation
    1.1633,                  !- Year 7 Escalation
    1.1779,                  !- Year 8 Escalation
    1.2014,                  !- Year 9 Escalation
    1.2270,                  !- <none>
    1.2595,                  !- <none>
    1.3038,                  !- <none>
    1.3260,                  !- <none>
    1.3384,                  !- <none>
    1.3502,                  !- <none>
    1.3612,                  !- <none>
    1.3709,                  !- <none>
    1.3799,                  !- <none>
    1.3848,                  !- <none>
    1.3910,                  !- <none>
    1.3931,                  !- <none>
    1.4000,                  !- <none>
    1.4090,                  !- <none>
    1.4180,                  !- <none>
    1.4235,                  !- <none>
    1.4284,                  !- <none>
    1.4325,                  !- <none>
    1.4367,                  !- <none>
    1.4415,                  !- <none>
    1.4457;                  !- <none>

  LifeCycleCost:UsePriceEscalation,
    NorthEast  Industrial-Natural gas,  !- LCC Price Escalation Name
    NaturalGas,              !- Resource
    2011,                    !- Escalation Start Year
    January,                 !- Escalation Start Month
    1.0016,                  !- Year 1 Escalation
    0.9951,                  !- Year 2 Escalation
    0.9804,                  !- Year 3 Escalation
    0.9755,                  !- Year 4 Escalation
    0.9788,                  !- Year 5 Escalation
    0.9837,                  !- Year 6 Escalation
    0.9918,                  !- Year 7 Escalation
    1.0065,                  !- Year 8 Escalation
    1.0228,                  !- Year 9 Escalation
    1.0392,                  !- <none>
    1.0538,                  !- <none>
    1.0701,                  !- <none>
    1.0865,                  !- <none>
    1.1044,                  !- <none>
    1.1175,                  !- <none>
    1.1321,                  !- <none>
    1.1468,                  !- <none>
    1.1582,                  !- <none>
    1.1729,                  !- <none>
    1.1860,                  !- <none>
    1.1958,                  !- <none>
    1.2072,                  !- <none>
    1.2170,                  !- <none>
    1.2251,                  !- <none>
    1.2447,                  !- <none>
    1.2675,                  !- <none>
    1.2920,                  !- <none>
    1.3165,                  !- <none>
    1.3426,                  !- <none>
    1.3670;                  !- <none>

  LifeCycleCost:UsePriceEscalation,
    NorthEast  Industrial-Coal,  !- LCC Price Escalation Name
    Coal,                    !- Resource
    2011,                    !- Escalation Start Year
    January,                 !- Escalation Start Month
    1.0065,                  !- Year 1 Escalation
    1.0130,                  !- Year 2 Escalation
    1.0162,                  !- Year 3 Escalation
    1.0130,                  !- Year 4 Escalation
    1.0195,                  !- Year 5 Escalation
    1.0260,                  !- Year 6 Escalation
    1.0260,                  !- Year 7 Escalation
    1.0260,                  !- Year 8 Escalation
    1.0292,                  !- Year 9 Escalation
    1.0292,                  !- <none>
    1.0325,                  !- <none>
    1.0292,                  !- <none>
    1.0357,                  !- <none>
    1.0357,                  !- <none>
    1.0390,                  !- <none>
    1.0422,                  !- <none>
    1.0487,                  !- <none>
    1.0552,                  !- <none>
    1.0552,                  !- <none>
    1.0584,                  !- <none>
    1.0617,                  !- <none>
    1.0649,                  !- <none>
    1.0714,                  !- <none>
    1.0747,                  !- <none>
    1.0779,                  !- <none>
    1.0812,                  !- <none>
    1.0844,                  !- <none>
    1.0877,                  !- <none>
    1.0909,                  !- <none>
    1.0909;                  !- <none>

  LifeCycleCost:UsePriceEscalation,
    MidWest  Residential-Electricity,  !- LCC Price Escalation Name
    Electricity,             !- Resource
    2011,                    !- Escalation Start Year
    January,                 !- Escalation Start Month
    0.9708,                  !- Year 1 Escalation
    0.9790,                  !- Year 2 Escalation
    0.9800,                  !- Year 3 Escalation
    0.9797,                  !- Year 4 Escalation
    0.9763,                  !- Year 5 Escalation
    0.9702,                  !- Year 6 Escalation
    0.9617,                  !- Year 7 Escalation
    0.9532,                  !- Year 8 Escalation
    0.9468,                  !- Year 9 Escalation
    0.9407,                  !- <none>
    0.9352,                  !- <none>
    0.9318,                  !- <none>
    0.9281,                  !- <none>
    0.9264,                  !- <none>
    0.9261,                  !- <none>
    0.9244,                  !- <none>
    0.9247,                  !- <none>
    0.9288,                  !- <none>
    0.9305,                  !- <none>
    0.9315,                  !- <none>
    0.9332,                  !- <none>
    0.9352,                  !- <none>
    0.9373,                  !- <none>
    0.9403,                  !- <none>
    0.9410,                  !- <none>
    0.9407,                  !- <none>
    0.9407,                  !- <none>
    0.9403,                  !- <none>
    0.9400,                  !- <none>
    0.9396;                  !- <none>

  LifeCycleCost:UsePriceEscalation,
    MidWest  Residential-Distillate Oil,  !- LCC Price Escalation Name
    FuelOilNo1,              !- Resource
    2011,                    !- Escalation Start Year
    January,                 !- Escalation Start Month
    0.8988,                  !- Year 1 Escalation
    0.8771,                  !- Year 2 Escalation
    0.8950,                  !- Year 3 Escalation
    0.9135,                  !- Year 4 Escalation
    0.9466,                  !- Year 5 Escalation
    0.9811,                  !- Year 6 Escalation
    1.0104,                  !- Year 7 Escalation
    1.0378,                  !- Year 8 Escalation
    1.0563,                  !- Year 9 Escalation
    1.0671,                  !- <none>
    1.0785,                  !- <none>
    1.0913,                  !- <none>
    1.1092,                  !- <none>
    1.1229,                  !- <none>
    1.1352,                  !- <none>
    1.1461,                  !- <none>
    1.1579,                  !- <none>
    1.1678,                  !- <none>
    1.1764,                  !- <none>
    1.1816,                  !- <none>
    1.1858,                  !- <none>
    1.1887,                  !- <none>
    1.1962,                  !- <none>
    1.2033,                  !- <none>
    1.2071,                  !- <none>
    1.2099,                  !- <none>
    1.2128,                  !- <none>
    1.2161,                  !- <none>
    1.2189,                  !- <none>
    1.2217;                  !- <none>

  LifeCycleCost:UsePriceEscalation,
    MidWest  Residential-Natural gas,  !- LCC Price Escalation Name
    NaturalGas,              !- Resource
    2011,                    !- Escalation Start Year
    January,                 !- Escalation Start Month
    0.9625,                  !- Year 1 Escalation
    0.9518,                  !- Year 2 Escalation
    0.9454,                  !- Year 3 Escalation
    0.9529,                  !- Year 4 Escalation
    0.9657,                  !- Year 5 Escalation
    0.9764,                  !- Year 6 Escalation
    0.9882,                  !- Year 7 Escalation
    1.0043,                  !- Year 8 Escalation
    1.0310,                  !- Year 9 Escalation
    1.0557,                  !- <none>
    1.0728,                  !- <none>
    1.0910,                  !- <none>
    1.1135,                  !- <none>
    1.1328,                  !- <none>
    1.1499,                  !- <none>
    1.1681,                  !- <none>
    1.1809,                  !- <none>
    1.1906,                  !- <none>
    1.1981,                  !- <none>
    1.2088,                  !- <none>
    1.2227,                  !- <none>
    1.2420,                  !- <none>
    1.2634,                  !- <none>
    1.2891,                  !- <none>
    1.3073,                  !- <none>
    1.3223,                  !- <none>
    1.3383,                  !- <none>
    1.3544,                  !- <none>
    1.3704,                  !- <none>
    1.3876;                  !- <none>

  LifeCycleCost:UsePriceEscalation,
    MidWest  Residential-LPG,!- LCC Price Escalation Name
    Propane,                 !- Resource
    2011,                    !- Escalation Start Year
    January,                 !- Escalation Start Month
    1.0800,                  !- Year 1 Escalation
    1.1219,                  !- Year 2 Escalation
    1.1425,                  !- Year 3 Escalation
    1.1600,                  !- Year 4 Escalation
    1.1783,                  !- Year 5 Escalation
    1.2010,                  !- Year 6 Escalation
    1.2242,                  !- Year 7 Escalation
    1.2461,                  !- Year 8 Escalation
    1.2662,                  !- Year 9 Escalation
    1.2845,                  !- <none>
    1.3003,                  !- <none>
    1.3151,                  !- <none>
    1.3291,                  !- <none>
    1.3422,                  !- <none>
    1.3540,                  !- <none>
    1.3641,                  !- <none>
    1.3728,                  !- <none>
    1.3807,                  !- <none>
    1.3868,                  !- <none>
    1.3907,                  !- <none>
    1.3920,                  !- <none>
    1.3934,                  !- <none>
    1.3938,                  !- <none>
    1.3942,                  !- <none>
    1.3964,                  !- <none>
    1.3990,                  !- <none>
    1.4017,                  !- <none>
    1.4047,                  !- <none>
    1.4073,                  !- <none>
    1.4104;                  !- <none>

  LifeCycleCost:UsePriceEscalation,
    MidWest  Commercial-Electricity,  !- LCC Price Escalation Name
    Electricity,             !- Resource
    2011,                    !- Escalation Start Year
    January,                 !- Escalation Start Month
    0.9837,                  !- Year 1 Escalation
    0.9801,                  !- Year 2 Escalation
    0.9714,                  !- Year 3 Escalation
    0.9690,                  !- Year 4 Escalation
    0.9674,                  !- Year 5 Escalation
    0.9619,                  !- Year 6 Escalation
    0.9535,                  !- Year 7 Escalation
    0.9448,                  !- Year 8 Escalation
    0.9388,                  !- Year 9 Escalation
    0.9325,                  !- <none>
    0.9273,                  !- <none>
    0.9249,                  !- <none>
    0.9225,                  !- <none>
    0.9209,                  !- <none>
    0.9205,                  !- <none>
    0.9186,                  !- <none>
    0.9205,                  !- <none>
    0.9253,                  !- <none>
    0.9273,                  !- <none>
    0.9293,                  !- <none>
    0.9325,                  !- <none>
    0.9352,                  !- <none>
    0.9388,                  !- <none>
    0.9440,                  !- <none>
    0.9460,                  !- <none>
    0.9464,                  !- <none>
    0.9468,                  !- <none>
    0.9476,                  !- <none>
    0.9480,                  !- <none>
    0.9484;                  !- <none>

  LifeCycleCost:UsePriceEscalation,
    MidWest  Commercial-Distillate Oil,  !- LCC Price Escalation Name