
OS:Version,
  {47af8c87-714d-47a4-afb4-9b9f6e4bbafc}, !- Handle
  0.11.5;                                 !- Version Identifier

OS:SimulationControl,
  {5dbec5bb-56a3-443f-a95c-89168fa16efe}, !- Handle
  Yes,                                    !- Do Zone Sizing Calculation
  Yes,                                    !- Do System Sizing Calculation
  ,                                       !- Do Plant Sizing Calculation
  No,                                     !- Run Simulation for Sizing Periods
  Yes;                                    !- Run Simulation for Weather File Run Periods

OS:Timestep,
  {2d246e73-9ffc-4209-b7ae-d0d6a2adc8ad}, !- Handle
  6;                                      !- Number of Timesteps per Hour

OS:RunPeriod,
  {a24bd29b-d457-4989-8645-aed452cb98ec}, !- Handle
  Run Period 1,                           !- Name
  1,                                      !- Begin Month
  1,                                      !- Begin Day of Month
  12,                                     !- End Month
  31,                                     !- End Day of Month
  No,                                     !- Use Weather File Holidays and Special Days
  No,                                     !- Use Weather File Daylight Saving Period
  No,                                     !- Apply Weekend Holiday Rule
  Yes,                                    !- Use Weather File Rain Indicators
  Yes,                                    !- Use Weather File Snow Indicators
  1;                                      !- Number of Times Runperiod to be Repeated

OS:SurfaceConvectionAlgorithm:Inside,
  {090c2109-1f42-4f38-a979-1c9e6432d273}, !- Handle
  TARP;                                   !- Algorithm

OS:SurfaceConvectionAlgorithm:Outside,
  {649830f1-99a4-4a3b-a178-44d01475aecd}, !- Handle
  DOE-2;                                  !- Algorithm

OS:HeatBalanceAlgorithm,
  {a937fd10-5b88-43eb-954c-dd40ff47e349}, !- Handle
  ConductionTransferFunction,             !- Algorithm
  200;                                    !- Surface Temperature Upper Limit {F}

OS:ZoneAirHeatBalanceAlgorithm,
  {a4b22dcf-c3ed-4d92-a824-d788ac4b16a7}, !- Handle
  AnalyticalSolution;                     !- Algorithm

OS:ConvergenceLimits,
  {bfd1b9e9-8f80-4bb8-a43e-f6314c87a05e}; !- Handle

OS:ShadowCalculation,
  {93c26320-5898-49d4-981a-bd5ceaf25a10}, !- Handle
  7,                                      !- Calculation Frequency
  15000;                                  !- Maximum Figures in Shadow Overlap Calculations

OS:Site,
  {8af29135-e0b1-43ee-95b0-a9949c514989}, !- Handle
  Site 1,                                 !- Name
  41.77,                                  !- Latitude {deg}
  -87.75,                                 !- Longitude {deg}
  -6,                                     !- Time Zone {hr}
  190,                                    !- Elevation {m}
  ;                                       !- Terrain

OS:Site:GroundTemperature:BuildingSurface,
  {b80cfd88-a0ff-4701-8c7d-6fbe391c1b5e}, !- Handle
  19.527,                                 !- January Ground Temperature {C}
  19.502,                                 !- February Ground Temperature {C}
  19.536,                                 !- March Ground Temperature {C}
  19.598,                                 !- April Ground Temperature {C}
  20.002,                                 !- May Ground Temperature {C}
  21.64,                                  !- June Ground Temperature {C}
  22.225,                                 !- July Ground Temperature {C}
  22.375,                                 !- August Ground Temperature {C}
  21.449,                                 !- September Ground Temperature {C}
  20.121,                                 !- October Ground Temperature {C}
  19.802,                                 !- November Ground Temperature {C}
  19.633;                                 !- December Ground Temperature {C}

OS:Site:WaterMainsTemperature,
  {33a8c4d9-50fe-404c-ad75-3fbd93f99032}, !- Handle
  Correlation,                            !- Calculation Method
  ,                                       !- Temperature Schedule Name
  9.69,                                   !- Annual Average Outdoor Air Temperature {C}
  28.1;                                   !- Maximum Difference In Monthly Average Outdoor Air Temperatures {deltaC}

OS:SizingPeriod:DesignDay,
  {a8c11f4b-46f0-4aa2-909d-8d8d94919644}, !- Handle
  Sizing Period Design Day 1,             !- Name
  -20.6,                                  !- Maximum Dry-Bulb Temperature {C}
  0,                                      !- Daily Dry-Bulb Temperature Range {deltaC}
  -20.6,                                  !- Humidity Indicating Conditions at Maximum Dry-Bulb {BasedOnField A3}
  99063,                                  !- Barometric Pressure {Pa}
  4.9,                                    !- Wind Speed {m/s}
  270,                                    !- Wind Direction {deg}
  0,                                      !- Sky Clearness
  0,                                      !- Rain Indicator
  0,                                      !- Snow Indicator
  21,                                     !- Day of Month
  1,                                      !- Month
  WinterDesignDay,                        !- Day Type
  0,                                      !- Daylight Saving Time Indicator
  WetBulb,                                !- Humidity Indicating Type
  ,                                       !- Humidity Indicating Day Schedule Name
  DefaultMultipliers,                     !- Dry-Bulb Temperature Range Modifier Type
  ,                                       !- Dry-Bulb Temperature Range Modifier Schedule Name
  AshraeClearSky;                         !- Solar Model Indicator

OS:SizingPeriod:DesignDay,
  {4f11c2e8-0e44-4579-8ad9-3af048e0c733}, !- Handle
  Sizing Period Design Day 2,             !- Name
  33.2,                                   !- Maximum Dry-Bulb Temperature {C}
  10.7,                                   !- Daily Dry-Bulb Temperature Range {deltaC}
  23.8,                                   !- Humidity Indicating Conditions at Maximum Dry-Bulb {BasedOnField A3}
  99063,                                  !- Barometric Pressure {Pa}
  5.3,                                    !- Wind Speed {m/s}
  230,                                    !- Wind Direction {deg}
  1,                                      !- Sky Clearness
  0,                                      !- Rain Indicator
  0,                                      !- Snow Indicator
  21,                                     !- Day of Month
  7,                                      !- Month
  SummerDesignDay,                        !- Day Type
  0,                                      !- Daylight Saving Time Indicator
  WetBulb,                                !- Humidity Indicating Type
  ,                                       !- Humidity Indicating Day Schedule Name
  DefaultMultipliers,                     !- Dry-Bulb Temperature Range Modifier Type
  ,                                       !- Dry-Bulb Temperature Range Modifier Schedule Name
  AshraeClearSky;                         !- Solar Model Indicator

OS:ScheduleTypeLimits,
  {3f2f24a3-5d8a-4654-9af0-95e6642069b4}, !- Handle
  Temperature,                            !- Name
  -60,                                    !- Lower Limit Value {BasedOnField A4}
  200,                                    !- Upper Limit Value {BasedOnField A4}
  CONTINUOUS,                             !- Numeric Type
  Temperature;                            !- Unit Type

OS:DefaultScheduleSet,
  {09d8fcb0-2a6c-498c-98d2-9ff0fb50475f}, !- Handle
  Default Schedules,                      !- Name
  ,                                       !- Hours of Operation Schedule Name
  {795ecb10-e209-4c7e-b1df-88f3363d4720}, !- Number of People Schedule Name
  {600bae64-1fa4-4cb1-83c8-e35ae2e22b37}, !- People Activity Level Schedule Name
  {9a2ab772-1e33-4d92-8541-c273ba5c9d85}, !- Lighting Schedule Name
  {abf5a633-7e8c-4685-adc6-6ef2d16d66e8}, !- Electric Equipment Schedule Name
  {192c6f00-68e6-40b4-bbbb-221213a5497a}, !- Gas Equipment Schedule Name
  {0e41fab7-b248-4e97-b345-ba022c3e0c7c}, !- Hot Water Equipment Schedule Name
  {f38916dd-0230-4fcc-8a96-caed1cc56ab3}, !- Infiltration Schedule Name
  ,                                       !- Steam Equipment Schedule Name
  ;                                       !- Other Equipment Schedule Name

OS:Schedule:Ruleset,
  {795ecb10-e209-4c7e-b1df-88f3363d4720}, !- Handle
  Medium Office Number of People Schedule, !- Name
  {247b1365-7ea6-464f-b4eb-b5484437f036}, !- Schedule Type Limits Name
  {25d34baa-df26-4120-a46d-66f4c565b0f9}, !- Default Day Schedule Name
  {3e01420f-62ac-4d6a-b8a5-a10e05c754fb}; !- Summer Design Day Schedule Name

OS:Schedule:Day,
  {25d34baa-df26-4120-a46d-66f4c565b0f9}, !- Handle
  Medium Office Number of People All Other Days Schedule, !- Name
  {247b1365-7ea6-464f-b4eb-b5484437f036}, !- Schedule Type Limits Name
  ,                                       !- Interpolate to Timestep
  24,                                     !- Hour 1
  0,                                      !- Minute 1
  0;                                      !- Value Until Time 1

OS:Schedule:Day,
  {2c1ebd64-495c-4e2b-a447-afa57e9e76e7}, !- Handle
  Medium Office Number of People Summer Design Day Schedule, !- Name
  ,                                       !- Schedule Type Limits Name
  ,                                       !- Interpolate to Timestep
  6,                                      !- Hour 1
  0,                                      !- Minute 1
  0,                                      !- Value Until Time 1
  22,                                     !- Hour 2
  0,                                      !- Minute 2
  1,                                      !- Value Until Time 2
  24,                                     !- Hour 3
  0,                                      !- Minute 3
  0.05;                                   !- Value Until Time 3

OS:Schedule:Day,
  {3e01420f-62ac-4d6a-b8a5-a10e05c754fb}, !- Handle
  Medium Office Number of People Summer Design Day Schedule 1, !- Name
  {247b1365-7ea6-464f-b4eb-b5484437f036}, !- Schedule Type Limits Name
  ,                                       !- Interpolate to Timestep
  6,                                      !- Hour 1
  0,                                      !- Minute 1
  0,                                      !- Value Until Time 1
  22,                                     !- Hour 2
  0,                                      !- Minute 2
  1,                                      !- Value Until Time 2
  24,                                     !- Hour 3
  0,                                      !- Minute 3
  0.05;                                   !- Value Until Time 3

OS:Schedule:Rule,
  {54684524-4f21-445e-a9d2-7280870e494e}, !- Handle
  Medium Office Number of People Schedule Weekdays Rule, !- Name
  {795ecb10-e209-4c7e-b1df-88f3363d4720}, !- Schedule Ruleset Name
  1,                                      !- Rule Order
  {e63a05b0-5114-4f43-a3cf-1343650ea546}, !- Day Schedule Name
  ,                                       !- Apply Sunday
  Yes,                                    !- Apply Monday
  Yes,                                    !- Apply Tuesday
  Yes,                                    !- Apply Wednesday
  Yes,                                    !- Apply Thursday
  Yes;                                    !- Apply Friday

OS:Schedule:Day,
  {e63a05b0-5114-4f43-a3cf-1343650ea546}, !- Handle
  Medium Office Number of People Weekdays Schedule, !- Name
  {247b1365-7ea6-464f-b4eb-b5484437f036}, !- Schedule Type Limits Name
  ,                                       !- Interpolate to Timestep
  6,                                      !- Hour 1
  0,                                      !- Minute 1
  0,                                      !- Value Until Time 1
  7,                                      !- Hour 2
  0,                                      !- Minute 2
  0.1,                                    !- Value Until Time 2
  8,                                      !- Hour 3
  0,                                      !- Minute 3
  0.2,                                    !- Value Until Time 3
  12,                                     !- Hour 4
  0,                                      !- Minute 4
  0.95,                                   !- Value Until Time 4
  13,                                     !- Hour 5
  0,                                      !- Minute 5
  0.5,                                    !- Value Until Time 5
  17,                                     !- Hour 6
  0,                                      !- Minute 6
  0.95,                                   !- Value Until Time 6
  18,                                     !- Hour 7
  0,                                      !- Minute 7
  0.7,                                    !- Value Until Time 7
  20,                                     !- Hour 8
  0,                                      !- Minute 8
  0.4,                                    !- Value Until Time 8
  22,                                     !- Hour 9
  0,                                      !- Minute 9
  0.1,                                    !- Value Until Time 9
  24,                                     !- Hour 10
  0,                                      !- Minute 10
  0.05;                                   !- Value Until Time 10

OS:Schedule:Rule,
  {9c5c5c53-2b36-45c5-ab00-d40319145e02}, !- Handle
  Medium Office Number of People Schedule Saturday Rule, !- Name
  {795ecb10-e209-4c7e-b1df-88f3363d4720}, !- Schedule Ruleset Name
  0,                                      !- Rule Order
  {eae36a44-7b7f-4eb6-b4de-279bcd0ac3c7}, !- Day Schedule Name
  ,                                       !- Apply Sunday
  ,                                       !- Apply Monday
  ,                                       !- Apply Tuesday
  ,                                       !- Apply Wednesday
  ,                                       !- Apply Thursday
  ,                                       !- Apply Friday
  Yes;                                    !- Apply Saturday

OS:Schedule:Day,
  {eae36a44-7b7f-4eb6-b4de-279bcd0ac3c7}, !- Handle
  Medium Office Number of People Saturday Schedule, !- Name
  {247b1365-7ea6-464f-b4eb-b5484437f036}, !- Schedule Type Limits Name
  ,                                       !- Interpolate to Timestep
  6,                                      !- Hour 1
  0,                                      !- Minute 1
  0,                                      !- Value Until Time 1
  8,                                      !- Hour 2
  0,                                      !- Minute 2
  0.1,                                    !- Value Until Time 2
  14,                                     !- Hour 3
  0,                                      !- Minute 3
  0.5,                                    !- Value Until Time 3
  17,                                     !- Hour 4
  0,                                      !- Minute 4
  0.1,                                    !- Value Until Time 4
  24,                                     !- Hour 5
  0,                                      !- Minute 5
  0;                                      !- Value Until Time 5

OS:ScheduleTypeLimits,
  {247b1365-7ea6-464f-b4eb-b5484437f036}, !- Handle
  Fractional,                             !- Name
  0,                                      !- Lower Limit Value {BasedOnField A4}
  1,                                      !- Upper Limit Value {BasedOnField A4}
  Continuous;                             !- Numeric Type

OS:Schedule:Ruleset,
  {600bae64-1fa4-4cb1-83c8-e35ae2e22b37}, !- Handle
  Medium Office People Activity Level Schedule, !- Name
  {939a259d-b4b0-48dd-ad76-1760ae8667e1}, !- Schedule Type Limits Name
  {483866f1-72dd-4054-ac8e-1d39cee38258}; !- Default Day Schedule Name

OS:Schedule:Day,
  {483866f1-72dd-4054-ac8e-1d39cee38258}, !- Handle
  Medium Office People Activity Level All Days Schedule, !- Name
  {939a259d-b4b0-48dd-ad76-1760ae8667e1}, !- Schedule Type Limits Name
  ,                                       !- Interpolate to Timestep
  24,                                     !- Hour 1
  0,                                      !- Minute 1
  120;                                    !- Value Until Time 1

OS:ScheduleTypeLimits,
  {939a259d-b4b0-48dd-ad76-1760ae8667e1}, !- Handle
  ActivityLevel,                          !- Name
  0,                                      !- Lower Limit Value {BasedOnField A4}
  ,                                       !- Upper Limit Value {BasedOnField A4}
  Continuous,                             !- Numeric Type
  ActivityLevel;                          !- Unit Type

OS:Schedule:Ruleset,
  {9a2ab772-1e33-4d92-8541-c273ba5c9d85}, !- Handle
  Medium Office Lighting Schedule,        !- Name
  {247b1365-7ea6-464f-b4eb-b5484437f036}, !- Schedule Type Limits Name
  {65c1d01a-661f-4b3a-a378-9fa9cfafba7f}, !- Default Day Schedule Name
  {e4353b5f-ff1a-42ee-afe8-df4e6dd4fb51}, !- Summer Design Day Schedule Name
  {a1c81a7e-cd57-4ceb-bc78-23582fb74058}; !- Winter Design Day Schedule Name

OS:Schedule:Day,
  {65c1d01a-661f-4b3a-a378-9fa9cfafba7f}, !- Handle
  Medium Office Lighting All Other Days Schedule, !- Name
  {247b1365-7ea6-464f-b4eb-b5484437f036}, !- Schedule Type Limits Name
  ,                                       !- Interpolate to Timestep
  24,                                     !- Hour 1
  0,                                      !- Minute 1
  0.05;                                   !- Value Until Time 1

OS:Schedule:Day,
  {1fb00568-bec4-4214-ae02-3dd6e61e1d33}, !- Handle
  Medium Office Lighting Summer Design Day Schedule, !- Name
  ,                                       !- Schedule Type Limits Name
  ,                                       !- Interpolate to Timestep
  6,                                      !- Hour 1
  0,                                      !- Minute 1
  1,                                      !- Value Until Time 1
  24,                                     !- Hour 2
  0,                                      !- Minute 2
  0;                                      !- Value Until Time 2

OS:Schedule:Day,
  {e4353b5f-ff1a-42ee-afe8-df4e6dd4fb51}, !- Handle
  Medium Office Lighting Summer Design Day Schedule 1, !- Name
  {247b1365-7ea6-464f-b4eb-b5484437f036}, !- Schedule Type Limits Name
  ,                                       !- Interpolate to Timestep
  6,                                      !- Hour 1
  0,                                      !- Minute 1
  1,                                      !- Value Until Time 1
  24,                                     !- Hour 2
  0,                                      !- Minute 2
  0;                                      !- Value Until Time 2

OS:Schedule:Day,
  {2b3eca79-9212-47e6-90dd-db3628e962b9}, !- Handle
  Medium Office Lighting Winter Design Day Schedule, !- Name
  ,                                       !- Schedule Type Limits Name
  ,                                       !- Interpolate to Timestep
  24,                                     !- Hour 1
  0,                                      !- Minute 1
  0;                                      !- Value Until Time 1

OS:Schedule:Day,
  {a1c81a7e-cd57-4ceb-bc78-23582fb74058}, !- Handle
  Medium Office Lighting Winter Design Day Schedule 1, !- Name
  {247b1365-7ea6-464f-b4eb-b5484437f036}, !- Schedule Type Limits Name
  ,                                       !- Interpolate to Timestep
  24,                                     !- Hour 1
  0,                                      !- Minute 1
  0;                                      !- Value Until Time 1

OS:Schedule:Rule,
  {2f42cfbc-45a7-40cf-9f54-07d2aaace928}, !- Handle
  Medium Office Lighting Schedule Weekdays Rule, !- Name
  {9a2ab772-1e33-4d92-8541-c273ba5c9d85}, !- Schedule Ruleset Name
  1,                                      !- Rule Order
  {d94eb502-da79-4788-8365-b5dbf60b3f27}, !- Day Schedule Name
  ,                                       !- Apply Sunday
  Yes,                                    !- Apply Monday
  Yes,                                    !- Apply Tuesday
  Yes,                                    !- Apply Wednesday
  Yes,                                    !- Apply Thursday
  Yes;                                    !- Apply Friday

OS:Schedule:Day,
  {d94eb502-da79-4788-8365-b5dbf60b3f27}, !- Handle
  Medium Office Lighting Weekdays Schedule, !- Name
  {247b1365-7ea6-464f-b4eb-b5484437f036}, !- Schedule Type Limits Name
  ,                                       !- Interpolate to Timestep
  5,                                      !- Hour 1
  0,                                      !- Minute 1
  0.05,                                   !- Value Until Time 1
  7,                                      !- Hour 2
  0,                                      !- Minute 2
  0.1,                                    !- Value Until Time 2
  8,                                      !- Hour 3
  0,                                      !- Minute 3
  0.3,                                    !- Value Until Time 3
  17,                                     !- Hour 4
  0,                                      !- Minute 4
  0.9,                                    !- Value Until Time 4
  18,                                     !- Hour 5
  0,                                      !- Minute 5
  0.7,                                    !- Value Until Time 5
  20,                                     !- Hour 6
  0,                                      !- Minute 6
  0.5,                                    !- Value Until Time 6
  22,                                     !- Hour 7
  0,                                      !- Minute 7
  0.3,                                    !- Value Until Time 7
  23,                                     !- Hour 8
  0,                                      !- Minute 8
  0.1,                                    !- Value Until Time 8
  24,                                     !- Hour 9
  0,                                      !- Minute 9
  0.05;                                   !- Value Until Time 9

OS:Schedule:Rule,
  {68b2fedf-1fed-46c0-a4e6-7420aeef6683}, !- Handle
  Medium Office Lighting Schedule Saturday Rule, !- Name
  {9a2ab772-1e33-4d92-8541-c273ba5c9d85}, !- Schedule Ruleset Name
  0,                                      !- Rule Order
  {d6aaa61b-67a3-4dc5-8d77-db840479cd34}, !- Day Schedule Name
  ,                                       !- Apply Sunday
  ,                                       !- Apply Monday
  ,                                       !- Apply Tuesday
  ,                                       !- Apply Wednesday
  ,                                       !- Apply Thursday
  ,                                       !- Apply Friday
  Yes;                                    !- Apply Saturday

OS:Schedule:Day,
  {d6aaa61b-67a3-4dc5-8d77-db840479cd34}, !- Handle
  Medium Office Lighting Saturday Schedule, !- Name
  {247b1365-7ea6-464f-b4eb-b5484437f036}, !- Schedule Type Limits Name
  ,                                       !- Interpolate to Timestep
  6,                                      !- Hour 1
  0,                                      !- Minute 1
  0.05,                                   !- Value Until Time 1
  8,                                      !- Hour 2
  0,                                      !- Minute 2
  0.1,                                    !- Value Until Time 2
  14,                                     !- Hour 3
  0,                                      !- Minute 3
  0.5,                                    !- Value Until Time 3
  17,                                     !- Hour 4
  0,                                      !- Minute 4
  0.15,                                   !- Value Until Time 4
  24,                                     !- Hour 5
  0,                                      !- Minute 5
  0.05;                                   !- Value Until Time 5

OS:Schedule:Ruleset,
  {abf5a633-7e8c-4685-adc6-6ef2d16d66e8}, !- Handle
  Medium Office Electric Equipment Schedule, !- Name
  {247b1365-7ea6-464f-b4eb-b5484437f036}, !- Schedule Type Limits Name
  {3a7a622e-a8cd-42cc-b6bc-bee9e51c0d25}, !- Default Day Schedule Name
  {10652175-d90f-431e-ba7f-1ae216200d51}, !- Summer Design Day Schedule Name
  {91d4a657-d573-4635-8e12-5d20adb24676}; !- Winter Design Day Schedule Name

OS:Schedule:Day,
  {3a7a622e-a8cd-42cc-b6bc-bee9e51c0d25}, !- Handle
  Medium Office Electric Equipment All Other Days Schedule, !- Name
  {247b1365-7ea6-464f-b4eb-b5484437f036}, !- Schedule Type Limits Name
  ,                                       !- Interpolate to Timestep
  24,                                     !- Hour 1
  0,                                      !- Minute 1
  0.3;                                    !- Value Until Time 1

OS:Schedule:Day,
  {a8163651-31f3-4e8d-8f7d-b375bdc7cee1}, !- Handle
  Medium Office Electric Equipment Summer Design Day Schedule, !- Name
  ,                                       !- Schedule Type Limits Name
  ,                                       !- Interpolate to Timestep
  6,                                      !- Hour 1
  0,                                      !- Minute 1
  1,                                      !- Value Until Time 1
  24,                                     !- Hour 2
  0,                                      !- Minute 2
  0;                                      !- Value Until Time 2

OS:Schedule:Day,
  {10652175-d90f-431e-ba7f-1ae216200d51}, !- Handle
  Medium Office Electric Equipment Summer Design Day Schedule 1, !- Name
  {247b1365-7ea6-464f-b4eb-b5484437f036}, !- Schedule Type Limits Name
  ,                                       !- Interpolate to Timestep
  6,                                      !- Hour 1
  0,                                      !- Minute 1
  1,                                      !- Value Until Time 1
  24,                                     !- Hour 2
  0,                                      !- Minute 2
  0;                                      !- Value Until Time 2

OS:Schedule:Day,
  {d0234746-e3b1-446f-8b59-b48777cf6f4e}, !- Handle
  Medium Office Electric Equipment Winter Design Day Schedule, !- Name
  ,                                       !- Schedule Type Limits Name
  ,                                       !- Interpolate to Timestep
  24,                                     !- Hour 1
  0,                                      !- Minute 1
  0;                                      !- Value Until Time 1

OS:Schedule:Day,
  {91d4a657-d573-4635-8e12-5d20adb24676}, !- Handle
  Medium Office Electric Equipment Winter Design Day Schedule 1, !- Name
  {247b1365-7ea6-464f-b4eb-b5484437f036}, !- Schedule Type Limits Name
  ,                                       !- Interpolate to Timestep
  24,                                     !- Hour 1
  0,                                      !- Minute 1
  0;                                      !- Value Until Time 1

OS:Schedule:Rule,
  {aa7ded6b-da15-4de8-9d24-c82b5444a7f5}, !- Handle
  Medium Office Electric Equipment Schedule Weekdays Rule, !- Name
  {abf5a633-7e8c-4685-adc6-6ef2d16d66e8}, !- Schedule Ruleset Name
  1,                                      !- Rule Order
  {7c260eb3-ddaa-4c38-bd95-60b447827ec1}, !- Day Schedule Name
  ,                                       !- Apply Sunday
  Yes,                                    !- Apply Monday
  Yes,                                    !- Apply Tuesday
  Yes,                                    !- Apply Wednesday
  Yes,                                    !- Apply Thursday
  Yes;                                    !- Apply Friday

OS:Schedule:Day,
  {7c260eb3-ddaa-4c38-bd95-60b447827ec1}, !- Handle
  Medium Office Electric Equipment Weekdays Schedule, !- Name
  {247b1365-7ea6-464f-b4eb-b5484437f036}, !- Schedule Type Limits Name
  ,                                       !- Interpolate to Timestep
  8,                                      !- Hour 1
  0,                                      !- Minute 1
  0.4,                                    !- Value Until Time 1
  12,                                     !- Hour 2
  0,                                      !- Minute 2
  0.9,                                    !- Value Until Time 2
  13,                                     !- Hour 3
  0,                                      !- Minute 3
  0.8,                                    !- Value Until Time 3
  17,                                     !- Hour 4
  0,                                      !- Minute 4
  0.9,                                    !- Value Until Time 4
  18,                                     !- Hour 5
  0,                                      !- Minute 5
  0.8,                                    !- Value Until Time 5
  20,                                     !- Hour 6
  0,                                      !- Minute 6
  0.6,                                    !- Value Until Time 6
  22,                                     !- Hour 7
  0,                                      !- Minute 7
  0.5,                                    !- Value Until Time 7
  24,                                     !- Hour 8
  0,                                      !- Minute 8
  0.4;                                    !- Value Until Time 8

OS:Schedule:Rule,
  {81dbd271-b696-47a3-bb2c-e551cd9dcfc4}, !- Handle
  Medium Office Electric Equipment Schedule Saturday Rule, !- Name
  {abf5a633-7e8c-4685-adc6-6ef2d16d66e8}, !- Schedule Ruleset Name
  0,                                      !- Rule Order
  {f12736d3-66fc-46d4-81e7-7e42a0cb9d34}, !- Day Schedule Name
  ,                                       !- Apply Sunday
  ,                                       !- Apply Monday
  ,                                       !- Apply Tuesday
  ,                                       !- Apply Wednesday