
OS:Version,
  {ca12601b-c38b-40c2-96a0-4afa03996de2}, !- Handle
  1.10.3;                                 !- Version Identifier

OS:SimulationControl,
  {24e76210-55fc-4a0d-80c1-ae2b5888cd3e}, !- Handle
  Yes,                                    !- Do Zone Sizing Calculation
  Yes,                                    !- Do System Sizing Calculation
  ,                                       !- Do Plant Sizing Calculation
  No,                                     !- Run Simulation for Sizing Periods
  Yes;                                    !- Run Simulation for Weather File Run Periods

OS:Timestep,
  {65d4c8ce-60f1-4acd-a6bf-b532f313d214}, !- Handle
  6;                                      !- Number of Timesteps per Hour

OS:RunPeriod,
  {10805d3a-7245-44b5-bd37-e66b20a6abe3}, !- Handle
  Run Period 1,                           !- Name
  1,                                      !- Begin Month
  1,                                      !- Begin Day of Month
  12,                                     !- End Month
  31,                                     !- End Day of Month
  No,                                     !- Use Weather File Holidays and Special Days
  No,                                     !- Use Weather File Daylight Saving Period
  No,                                     !- Apply Weekend Holiday Rule
  Yes,                                    !- Use Weather File Rain Indicators
  Yes,                                    !- Use Weather File Snow Indicators
  1;                                      !- Number of Times Runperiod to be Repeated

OS:SurfaceConvectionAlgorithm:Inside,
  {b03cc365-77af-4ae4-be34-e9a64a97cd3b}, !- Handle
  TARP;                                   !- Algorithm

OS:SurfaceConvectionAlgorithm:Outside,
  {53841bd5-261f-4f59-a103-d3aca19faa41}, !- Handle
  DOE-2;                                  !- Algorithm

OS:HeatBalanceAlgorithm,
  {0a39df11-ab1c-4c9a-ad6d-75dee51ac8a3}, !- Handle
  ConductionTransferFunction,             !- Algorithm
  200;                                    !- Surface Temperature Upper Limit {C}

OS:ZoneAirHeatBalanceAlgorithm,
  {3c342c61-06b5-4735-95b7-8ff1f71145da}, !- Handle
  ThirdOrderBackwardDifference;           !- Algorithm

OS:ConvergenceLimits,
  {9bcb32c3-d6c9-44bf-ad31-16fdf3227c11}, !- Handle
  1;                                      !- Minimum System Timestep {minutes}

OS:ShadowCalculation,
  {427024d3-daf9-49a1-87a3-95aafcb869c1}, !- Handle
  20,                                     !- Calculation Frequency
  15000;                                  !- Maximum Figures in Shadow Overlap Calculations

OS:Site,
  {ae9e9a9a-9427-4a79-b9b5-1be52b2923ba}, !- Handle
  Site 1,                                 !- Name
  41.77,                                  !- Latitude {deg}
  -87.75,                                 !- Longitude {deg}
  -6,                                     !- Time Zone {hr}
  190,                                    !- Elevation {m}
  ;                                       !- Terrain

OS:Site:GroundTemperature:BuildingSurface,
  {e158d2c2-60fe-471a-819e-981cb80af38d}, !- Handle
  19.527,                                 !- January Ground Temperature {C}
  19.502,                                 !- February Ground Temperature {C}
  19.536,                                 !- March Ground Temperature {C}
  19.598,                                 !- April Ground Temperature {C}
  20.002,                                 !- May Ground Temperature {C}
  21.64,                                  !- June Ground Temperature {C}
  22.225,                                 !- July Ground Temperature {C}
  22.375,                                 !- August Ground Temperature {C}
  21.449,                                 !- September Ground Temperature {C}
  20.121,                                 !- October Ground Temperature {C}
  19.802,                                 !- November Ground Temperature {C}
  19.633;                                 !- December Ground Temperature {C}

OS:Site:WaterMainsTemperature,
  {d94b525e-2644-4882-8472-434ecab982c9}, !- Handle
  Correlation,                            !- Calculation Method
  ,                                       !- Temperature Schedule Name
  9.69,                                   !- Annual Average Outdoor Air Temperature {C}
  28.1;                                   !- Maximum Difference In Monthly Average Outdoor Air Temperatures {deltaC}

OS:SizingPeriod:DesignDay,
  {cb433a45-8254-48e6-921c-178e92f3d0de}, !- Handle
  Sizing Period Design Day 1,             !- Name
  -20.6,                                  !- Maximum Dry-Bulb Temperature {C}
  0,                                      !- Daily Dry-Bulb Temperature Range {deltaC}
  -20.6,                                  !- Humidity Indicating Conditions at Maximum Dry-Bulb
  99063,                                  !- Barometric Pressure {Pa}
  4.9,                                    !- Wind Speed {m/s}
  270,                                    !- Wind Direction {deg}
  0,                                      !- Sky Clearness
  0,                                      !- Rain Indicator
  0,                                      !- Snow Indicator
  21,                                     !- Day of Month
  1,                                      !- Month
  WinterDesignDay,                        !- Day Type
  0,                                      !- Daylight Saving Time Indicator
  WetBulb,                                !- Humidity Indicating Type
  ,                                       !- Humidity Indicating Day Schedule Name
  DefaultMultipliers,                     !- Dry-Bulb Temperature Range Modifier Type
  ,                                       !- Dry-Bulb Temperature Range Modifier Schedule Name
  AshraeClearSky;                         !- Solar Model Indicator

OS:SizingPeriod:DesignDay,
  {291b74a2-432a-4efc-92bb-6b621b823c19}, !- Handle
  Sizing Period Design Day 2,             !- Name
  33.2,                                   !- Maximum Dry-Bulb Temperature {C}
  10.7,                                   !- Daily Dry-Bulb Temperature Range {deltaC}
  23.8,                                   !- Humidity Indicating Conditions at Maximum Dry-Bulb
  99063,                                  !- Barometric Pressure {Pa}
  5.3,                                    !- Wind Speed {m/s}
  230,                                    !- Wind Direction {deg}
  1,                                      !- Sky Clearness
  0,                                      !- Rain Indicator
  0,                                      !- Snow Indicator
  21,                                     !- Day of Month
  7,                                      !- Month
  SummerDesignDay,                        !- Day Type
  0,                                      !- Daylight Saving Time Indicator
  WetBulb,                                !- Humidity Indicating Type
  ,                                       !- Humidity Indicating Day Schedule Name
  DefaultMultipliers,                     !- Dry-Bulb Temperature Range Modifier Type
  ,                                       !- Dry-Bulb Temperature Range Modifier Schedule Name
  AshraeClearSky;                         !- Solar Model Indicator

OS:ScheduleTypeLimits,
  {ade0401c-0455-4194-ac12-1b85cae3ab96}, !- Handle
  Temperature,                            !- Name
  -60,                                    !- Lower Limit Value
  200,                                    !- Upper Limit Value
  CONTINUOUS,                             !- Numeric Type
  Temperature;                            !- Unit Type

OS:DefaultScheduleSet,
  {40edd22f-a243-4a21-b71f-33be5ae9696e}, !- Handle
  Default Schedules,                      !- Name
  ,                                       !- Hours of Operation Schedule Name
  {82520692-6a92-4c23-aa7f-7d2a0d49f94a}, !- Number of People Schedule Name
  {bd47258b-e466-4912-816c-d742c8c5c339}, !- People Activity Level Schedule Name
  {43771379-23d3-478b-a2ac-88b54b8e1d56}, !- Lighting Schedule Name
  {11b30308-1a84-486b-9dba-e2c5704b9100}, !- Electric Equipment Schedule Name
  {e8af41cc-57b7-461d-836a-711e3c32cc7e}, !- Gas Equipment Schedule Name
  {e2b139c8-e90d-4623-8cc0-afc18634d28e}, !- Hot Water Equipment Schedule Name
  {c44ed7da-91b0-46c6-83d0-1744650b0304}, !- Infiltration Schedule Name
  ,                                       !- Steam Equipment Schedule Name
  ;                                       !- Other Equipment Schedule Name

OS:Schedule:Ruleset,
  {82520692-6a92-4c23-aa7f-7d2a0d49f94a}, !- Handle
  Medium Office Number of People Schedule, !- Name
  {b60ce594-fecb-453f-af53-8032505cde3b}, !- Schedule Type Limits Name
  {4f3fc191-2c67-4fdb-adc1-a58ad793fc09}, !- Default Day Schedule Name
  {9b7d3148-edf9-41ec-815b-e878132c4428}; !- Summer Design Day Schedule Name

OS:Schedule:Day,
  {4f3fc191-2c67-4fdb-adc1-a58ad793fc09}, !- Handle
  Medium Office Number of People All Other Days Schedule, !- Name
  {b60ce594-fecb-453f-af53-8032505cde3b}, !- Schedule Type Limits Name
  ,                                       !- Interpolate to Timestep
  24,                                     !- Hour 1
  0,                                      !- Minute 1
  0;                                      !- Value Until Time 1

OS:Schedule:Day,
  {49f9a06b-59e3-46b2-9a38-78befbebc90c}, !- Handle
  Medium Office Number of People Summer Design Day Schedule, !- Name
  ,                                       !- Schedule Type Limits Name
  ,                                       !- Interpolate to Timestep
  6,                                      !- Hour 1
  0,                                      !- Minute 1
  0,                                      !- Value Until Time 1
  22,                                     !- Hour 2
  0,                                      !- Minute 2
  1,                                      !- Value Until Time 2
  24,                                     !- Hour 3
  0,                                      !- Minute 3
  0.05;                                   !- Value Until Time 3

OS:Schedule:Day,
  {9b7d3148-edf9-41ec-815b-e878132c4428}, !- Handle
  Medium Office Number of People Summer Design Day Schedule 1, !- Name
  {b60ce594-fecb-453f-af53-8032505cde3b}, !- Schedule Type Limits Name
  ,                                       !- Interpolate to Timestep
  6,                                      !- Hour 1
  0,                                      !- Minute 1
  0,                                      !- Value Until Time 1
  22,                                     !- Hour 2
  0,                                      !- Minute 2
  1,                                      !- Value Until Time 2
  24,                                     !- Hour 3
  0,                                      !- Minute 3
  0.05;                                   !- Value Until Time 3

OS:Schedule:Rule,
  {38679e07-a72e-4570-8d7e-984eea19e878}, !- Handle
  Medium Office Number of People Schedule Weekdays Rule, !- Name
  {82520692-6a92-4c23-aa7f-7d2a0d49f94a}, !- Schedule Ruleset Name
  1,                                      !- Rule Order
  {33113aad-84dc-461a-9575-7147956dd7d5}, !- Day Schedule Name
  ,                                       !- Apply Sunday
  Yes,                                    !- Apply Monday
  Yes,                                    !- Apply Tuesday
  Yes,                                    !- Apply Wednesday
  Yes,                                    !- Apply Thursday
  Yes;                                    !- Apply Friday

OS:Schedule:Day,
  {33113aad-84dc-461a-9575-7147956dd7d5}, !- Handle
  Medium Office Number of People Weekdays Schedule, !- Name
  {b60ce594-fecb-453f-af53-8032505cde3b}, !- Schedule Type Limits Name
  ,                                       !- Interpolate to Timestep
  6,                                      !- Hour 1
  0,                                      !- Minute 1
  0,                                      !- Value Until Time 1
  7,                                      !- Hour 2
  0,                                      !- Minute 2
  0.1,                                    !- Value Until Time 2
  8,                                      !- Hour 3
  0,                                      !- Minute 3
  0.2,                                    !- Value Until Time 3
  12,                                     !- Hour 4
  0,                                      !- Minute 4
  0.95,                                   !- Value Until Time 4
  13,                                     !- Hour 5
  0,                                      !- Minute 5
  0.5,                                    !- Value Until Time 5
  17,                                     !- Hour 6
  0,                                      !- Minute 6
  0.95,                                   !- Value Until Time 6
  18,                                     !- Hour 7
  0,                                      !- Minute 7
  0.7,                                    !- Value Until Time 7
  20,                                     !- Hour 8
  0,                                      !- Minute 8
  0.4,                                    !- Value Until Time 8
  22,                                     !- Hour 9
  0,                                      !- Minute 9
  0.1,                                    !- Value Until Time 9
  24,                                     !- Hour 10
  0,                                      !- Minute 10
  0.05;                                   !- Value Until Time 10

OS:Schedule:Rule,
  {426e55a9-c41c-4120-b8d4-262e74fb7748}, !- Handle
  Medium Office Number of People Schedule Saturday Rule, !- Name
  {82520692-6a92-4c23-aa7f-7d2a0d49f94a}, !- Schedule Ruleset Name
  0,                                      !- Rule Order
  {dcfce68d-5f19-4592-84e9-0196bd93983e}, !- Day Schedule Name
  ,                                       !- Apply Sunday
  ,                                       !- Apply Monday
  ,                                       !- Apply Tuesday
  ,                                       !- Apply Wednesday
  ,                                       !- Apply Thursday
  ,                                       !- Apply Friday
  Yes;                                    !- Apply Saturday

OS:Schedule:Day,
  {dcfce68d-5f19-4592-84e9-0196bd93983e}, !- Handle
  Medium Office Number of People Saturday Schedule, !- Name
  {b60ce594-fecb-453f-af53-8032505cde3b}, !- Schedule Type Limits Name
  ,                                       !- Interpolate to Timestep
  6,                                      !- Hour 1
  0,                                      !- Minute 1
  0,                                      !- Value Until Time 1
  8,                                      !- Hour 2
  0,                                      !- Minute 2
  0.1,                                    !- Value Until Time 2
  14,                                     !- Hour 3
  0,                                      !- Minute 3
  0.5,                                    !- Value Until Time 3
  17,                                     !- Hour 4
  0,                                      !- Minute 4
  0.1,                                    !- Value Until Time 4
  24,                                     !- Hour 5
  0,                                      !- Minute 5
  0;                                      !- Value Until Time 5

OS:ScheduleTypeLimits,
  {b60ce594-fecb-453f-af53-8032505cde3b}, !- Handle
  Fractional,                             !- Name
  0,                                      !- Lower Limit Value
  1,                                      !- Upper Limit Value
  Continuous;                             !- Numeric Type

OS:Schedule:Ruleset,
  {bd47258b-e466-4912-816c-d742c8c5c339}, !- Handle
  Medium Office People Activity Level Schedule, !- Name
  {3c4aa6b7-f24e-448c-80bd-676c1235b93e}, !- Schedule Type Limits Name
  {7556dc6e-ead4-43ed-82af-45d647e6a891}; !- Default Day Schedule Name

OS:Schedule:Day,
  {7556dc6e-ead4-43ed-82af-45d647e6a891}, !- Handle
  Medium Office People Activity Level All Days Schedule, !- Name
  {3c4aa6b7-f24e-448c-80bd-676c1235b93e}, !- Schedule Type Limits Name
  ,                                       !- Interpolate to Timestep
  24,                                     !- Hour 1
  0,                                      !- Minute 1
  120;                                    !- Value Until Time 1

OS:ScheduleTypeLimits,
  {3c4aa6b7-f24e-448c-80bd-676c1235b93e}, !- Handle
  ActivityLevel,                          !- Name
  0,                                      !- Lower Limit Value
  ,                                       !- Upper Limit Value
  Continuous,                             !- Numeric Type
  ActivityLevel;                          !- Unit Type

OS:Schedule:Ruleset,
  {43771379-23d3-478b-a2ac-88b54b8e1d56}, !- Handle
  Medium Office Lighting Schedule,        !- Name
  {b60ce594-fecb-453f-af53-8032505cde3b}, !- Schedule Type Limits Name
  {694c7de5-c547-4ffc-8763-865a45226052}, !- Default Day Schedule Name
  {bd79a79a-f6fb-4ffd-8fc8-488cd71bd565}, !- Summer Design Day Schedule Name
  {75be45e3-d2df-4de5-8a26-39f87a507a6f}; !- Winter Design Day Schedule Name

OS:Schedule:Day,
  {694c7de5-c547-4ffc-8763-865a45226052}, !- Handle
  Medium Office Lighting All Other Days Schedule, !- Name
  {b60ce594-fecb-453f-af53-8032505cde3b}, !- Schedule Type Limits Name
  ,                                       !- Interpolate to Timestep
  24,                                     !- Hour 1
  0,                                      !- Minute 1
  0.05;                                   !- Value Until Time 1

OS:Schedule:Day,
  {4b87b563-db18-4adb-9497-7f3cd50dfe7c}, !- Handle
  Medium Office Lighting Summer Design Day Schedule, !- Name
  ,                                       !- Schedule Type Limits Name
  ,                                       !- Interpolate to Timestep
  6,                                      !- Hour 1
  0,                                      !- Minute 1
  1,                                      !- Value Until Time 1
  24,                                     !- Hour 2
  0,                                      !- Minute 2
  0;                                      !- Value Until Time 2

OS:Schedule:Day,
  {bd79a79a-f6fb-4ffd-8fc8-488cd71bd565}, !- Handle
  Medium Office Lighting Summer Design Day Schedule 1, !- Name
  {b60ce594-fecb-453f-af53-8032505cde3b}, !- Schedule Type Limits Name
  ,                                       !- Interpolate to Timestep
  6,                                      !- Hour 1
  0,                                      !- Minute 1
  1,                                      !- Value Until Time 1
  24,                                     !- Hour 2
  0,                                      !- Minute 2
  0;                                      !- Value Until Time 2

OS:Schedule:Day,
  {668bd7d7-28a3-400a-a752-a0e40ac6b05e}, !- Handle
  Medium Office Lighting Winter Design Day Schedule, !- Name
  ,                                       !- Schedule Type Limits Name
  ,                                       !- Interpolate to Timestep
  24,                                     !- Hour 1
  0,                                      !- Minute 1
  0;                                      !- Value Until Time 1

OS:Schedule:Day,
  {75be45e3-d2df-4de5-8a26-39f87a507a6f}, !- Handle
  Medium Office Lighting Winter Design Day Schedule 1, !- Name
  {b60ce594-fecb-453f-af53-8032505cde3b}, !- Schedule Type Limits Name
  ,                                       !- Interpolate to Timestep
  24,                                     !- Hour 1
  0,                                      !- Minute 1
  0;                                      !- Value Until Time 1

OS:Schedule:Rule,
  {dadcf0a5-b536-4cef-ba22-16853c820bd7}, !- Handle
  Medium Office Lighting Schedule Weekdays Rule, !- Name
  {43771379-23d3-478b-a2ac-88b54b8e1d56}, !- Schedule Ruleset Name
  1,                                      !- Rule Order
  {939fa911-747e-46be-a911-7f65f5656aa2}, !- Day Schedule Name
  ,                                       !- Apply Sunday
  Yes,                                    !- Apply Monday
  Yes,                                    !- Apply Tuesday
  Yes,                                    !- Apply Wednesday
  Yes,                                    !- Apply Thursday
  Yes;                                    !- Apply Friday

OS:Schedule:Day,
  {939fa911-747e-46be-a911-7f65f5656aa2}, !- Handle
  Medium Office Lighting Weekdays Schedule, !- Name
  {b60ce594-fecb-453f-af53-8032505cde3b}, !- Schedule Type Limits Name
  ,                                       !- Interpolate to Timestep
  5,                                      !- Hour 1
  0,                                      !- Minute 1
  0.05,                                   !- Value Until Time 1
  7,                                      !- Hour 2
  0,                                      !- Minute 2
  0.1,                                    !- Value Until Time 2
  8,                                      !- Hour 3
  0,                                      !- Minute 3
  0.3,                                    !- Value Until Time 3
  17,                                     !- Hour 4
  0,                                      !- Minute 4
  0.9,                                    !- Value Until Time 4
  18,                                     !- Hour 5
  0,                                      !- Minute 5
  0.7,                                    !- Value Until Time 5
  20,                                     !- Hour 6
  0,                                      !- Minute 6
  0.5,                                    !- Value Until Time 6
  22,                                     !- Hour 7
  0,                                      !- Minute 7
  0.3,                                    !- Value Until Time 7
  23,                                     !- Hour 8
  0,                                      !- Minute 8
  0.1,                                    !- Value Until Time 8
  24,                                     !- Hour 9
  0,                                      !- Minute 9
  0.05;                                   !- Value Until Time 9

OS:Schedule:Rule,
  {b8847d2e-24f2-4180-9ea0-c6d0f852e53e}, !- Handle
  Medium Office Lighting Schedule Saturday Rule, !- Name
  {43771379-23d3-478b-a2ac-88b54b8e1d56}, !- Schedule Ruleset Name
  0,                                      !- Rule Order
  {fd5f4d7e-5c45-46a7-9a13-a13eb2772265}, !- Day Schedule Name
  ,                                       !- Apply Sunday
  ,                                       !- Apply Monday
  ,                                       !- Apply Tuesday
  ,                                       !- Apply Wednesday
  ,                                       !- Apply Thursday
  ,                                       !- Apply Friday
  Yes;                                    !- Apply Saturday

OS:Schedule:Day,
  {fd5f4d7e-5c45-46a7-9a13-a13eb2772265}, !- Handle
  Medium Office Lighting Saturday Schedule, !- Name
  {b60ce594-fecb-453f-af53-8032505cde3b}, !- Schedule Type Limits Name
  ,                                       !- Interpolate to Timestep
  6,                                      !- Hour 1
  0,                                      !- Minute 1
  0.05,                                   !- Value Until Time 1
  8,                                      !- Hour 2
  0,                                      !- Minute 2
  0.1,                                    !- Value Until Time 2
  14,                                     !- Hour 3
  0,                                      !- Minute 3
  0.5,                                    !- Value Until Time 3
  17,                                     !- Hour 4
  0,                                      !- Minute 4
  0.15,                                   !- Value Until Time 4
  24,                                     !- Hour 5
  0,                                      !- Minute 5
  0.05;                                   !- Value Until Time 5

OS:Schedule:Ruleset,
  {11b30308-1a84-486b-9dba-e2c5704b9100}, !- Handle
  Medium Office Electric Equipment Schedule, !- Name
  {b60ce594-fecb-453f-af53-8032505cde3b}, !- Schedule Type Limits Name
  {d97f3b63-facf-4230-875b-3b4412674cca}, !- Default Day Schedule Name
  {86322a74-a1d9-4a3b-925e-9baebd2f6830}, !- Summer Design Day Schedule Name
  {5ab2c4ac-feb8-43a8-bace-69d04662d33f}; !- Winter Design Day Schedule Name

OS:Schedule:Day,
  {d97f3b63-facf-4230-875b-3b4412674cca}, !- Handle
  Medium Office Electric Equipment All Other Days Schedule, !- Name
  {b60ce594-fecb-453f-af53-8032505cde3b}, !- Schedule Type Limits Name
  ,                                       !- Interpolate to Timestep
  24,                                     !- Hour 1
  0,                                      !- Minute 1
  0.3;                                    !- Value Until Time 1

OS:Schedule:Day,
  {9ca62447-b0cc-44eb-aa55-d1e9c97b0fed}, !- Handle
  Medium Office Electric Equipment Summer Design Day Schedule, !- Name
  ,                                       !- Schedule Type Limits Name
  ,                                       !- Interpolate to Timestep
  6,                                      !- Hour 1
  0,                                      !- Minute 1
  1,                                      !- Value Until Time 1
  24,                                     !- Hour 2
  0,                                      !- Minute 2
  0;                                      !- Value Until Time 2

OS:Schedule:Day,
  {86322a74-a1d9-4a3b-925e-9baebd2f6830}, !- Handle
  Medium Office Electric Equipment Summer Design Day Schedule 1, !- Name
  {b60ce594-fecb-453f-af53-8032505cde3b}, !- Schedule Type Limits Name
  ,                                       !- Interpolate to Timestep
  6,                                      !- Hour 1
  0,                                      !- Minute 1
  1,                                      !- Value Until Time 1
  24,                                     !- Hour 2
  0,                                      !- Minute 2
  0;                                      !- Value Until Time 2

OS:Schedule:Day,
  {8bffc200-5fe6-4da5-ad58-1a35cd02b723}, !- Handle
  Medium Office Electric Equipment Winter Design Day Schedule, !- Name
  ,                                       !- Schedule Type Limits Name
  ,                                       !- Interpolate to Timestep
  24,                                     !- Hour 1
  0,                                      !- Minute 1
  0;                                      !- Value Until Time 1

OS:Schedule:Day,
  {5ab2c4ac-feb8-43a8-bace-69d04662d33f}, !- Handle
  Medium Office Electric Equipment Winter Design Day Schedule 1, !- Name
  {b60ce594-fecb-453f-af53-8032505cde3b}, !- Schedule Type Limits Name
  ,                                       !- Interpolate to Timestep
  24,                                     !- Hour 1
  0,                                      !- Minute 1
  0;                                      !- Value Until Time 1

OS:Schedule:Rule,
  {33940a02-2ae2-4a4a-9fdf-8593f7d6f819}, !- Handle
  Medium Office Electric Equipment Schedule Weekdays Rule, !- Name
  {11b30308-1a84-486b-9dba-e2c5704b9100}, !- Schedule Ruleset Name
  1,                                      !- Rule Order
  {a8895f7a-9f1b-41a7-b0fe-682d1a02c226}, !- Day Schedule Name
  ,                                       !- Apply Sunday
  Yes,                                    !- Apply Monday
  Yes,                                    !- Apply Tuesday
  Yes,                                    !- Apply Wednesday
  Yes,                                    !- Apply Thursday
  Yes;                                    !- Apply Friday

OS:Schedule:Day,
  {a8895f7a-9f1b-41a7-b0fe-682d1a02c226}, !- Handle
  Medium Office Electric Equipment Weekdays Schedule, !- Name
  {b60ce594-fecb-453f-af53-8032505cde3b}, !- Schedule Type Limits Name
  ,                                       !- Interpolate to Timestep
  8,                                      !- Hour 1
  0,                                      !- Minute 1
  0.4,                                    !- Value Until Time 1
  12,                                     !- Hour 2
  0,                                      !- Minute 2
  0.9,                                    !- Value Until Time 2
  13,                                     !- Hour 3
  0,                                      !- Minute 3
  0.8,                                    !- Value Until Time 3
  17,                                     !- Hour 4
  0,                                      !- Minute 4
  0.9,                                    !- Value Until Time 4
  18,                                     !- Hour 5
  0,                                      !- Minute 5
  0.8,                                    !- Value Until Time 5
  20,                                     !- Hour 6
  0,                                      !- Minute 6
  0.6,                                    !- Value Until Time 6
  22,                                     !- Hour 7
  0,                                      !- Minute 7
  0.5,                                    !- Value Until Time 7
  24,                                     !- Hour 8
  0,                                      !- Minute 8
  0.4;                                    !- Value Until Time 8

OS:Schedule:Rule,
  {5734814b-9c04-4fdd-a116-b5c7ca169c99}, !- Handle
  Medium Office Electric Equipment Schedule Saturday Rule, !- Name
  {11b30308-1a84-486b-9dba-e2c5704b9100}, !- Schedule Ruleset Name
  0,                                      !- Rule Order
  {3702addf-d3a9-4b95-a9e8-c8e2f7b6f68f}, !- Day Schedule Name
  ,                                       !- Apply Sunday
  ,                                       !- Apply Monday
  ,                                       !- Apply Tuesday
  ,                                       !- Apply Wednesday
  ,                                       !- Apply Thursday