
OS:Version,
  {45192680-c232-473e-9dbc-2e0eb323a0e4}, !- Handle
  1.9.0;                                  !- Version Identifier

OS:Construction,
  {43399697-41d8-4ce9-a990-6424bf2a5a75}, !- Handle
  Exterior Roof,                          !- Name
  ,                                       !- Surface Rendering Name
  {809268b6-e325-45ec-b6c2-e53baca91dd4}, !- Layer 1
  {ff267592-7f17-4204-903a-c4e7bbb60c45}, !- Layer 2
  {a9cee53f-5311-4259-a29b-a6e73059e193}; !- Layer 3

OS:Material,
  {809268b6-e325-45ec-b6c2-e53baca91dd4}, !- Handle
  M11 100mm lightweight concrete,         !- Name
  MediumRough,                            !- Roughness
  0.1016,                                 !- Thickness {m}
  0.53,                                   !- Conductivity {W/m-K}
  1280,                                   !- Density {kg/m3}
  840;                                    !- Specific Heat {J/kg-K}

OS:Material:AirGap,
  {ff267592-7f17-4204-903a-c4e7bbb60c45}, !- Handle
  F05 Ceiling air space resistance,       !- Name
  0.18;                                   !- Thermal Resistance {m2-K/W}

OS:Material,
  {a9cee53f-5311-4259-a29b-a6e73059e193}, !- Handle
  F16 Acoustic tile,                      !- Name
  MediumSmooth,                           !- Roughness
  0.0191,                                 !- Thickness {m}
  0.06,                                   !- Conductivity {W/m-K}
  368,                                    !- Density {kg/m3}
  590;                                    !- Specific Heat {J/kg-K}

OS:ComponentData,
  {76f1fa2a-9c75-4582-a9ac-c905afeabf57}, !- Handle
  Component Data 1,                       !- Name
  {4aa2ea3b-61a1-4cb5-a402-f5a4506f9aeb}, !- UUID
  {b8f9d366-4737-4295-817d-65ab1949263f}, !- Version UUID
  1443465006,                             !- Creation Timestamp
  1443465006,                             !- Version Timestamp
  {43399697-41d8-4ce9-a990-6424bf2a5a75}, !- Name of Object 1
  {809268b6-e325-45ec-b6c2-e53baca91dd4}, !- Name of Object 2
  {ff267592-7f17-4204-903a-c4e7bbb60c45}, !- Name of Object 3
  {a9cee53f-5311-4259-a29b-a6e73059e193}; !- Name of Object 4

