
OS:Version,
  {b3be0d4d-c646-47de-82c3-fa1aa897766b}, !- Handle
  1.10.6;                                 !- Version Identifier

OS:SimulationControl,
  {9e371e27-b3eb-42dc-8803-d80a8ba0f7e0}, !- Handle
  Yes,                                    !- Do Zone Sizing Calculation
  Yes,                                    !- Do System Sizing Calculation
  ,                                       !- Do Plant Sizing Calculation
  No,                                     !- Run Simulation for Sizing Periods
  Yes;                                    !- Run Simulation for Weather File Run Periods

OS:Timestep,
  {834523cc-ef6e-4a4e-86a4-d5df715beca8}, !- Handle
  6;                                      !- Number of Timesteps per Hour

OS:RunPeriod,
  {6e127271-4d90-4aaf-8055-a87c028ea739}, !- Handle
  Run Period 1,                           !- Name
  1,                                      !- Begin Month
  1,                                      !- Begin Day of Month
  12,                                     !- End Month
  31,                                     !- End Day of Month
  No,                                     !- Use Weather File Holidays and Special Days
  No,                                     !- Use Weather File Daylight Saving Period
  No,                                     !- Apply Weekend Holiday Rule
  Yes,                                    !- Use Weather File Rain Indicators
  Yes,                                    !- Use Weather File Snow Indicators
  1;                                      !- Number of Times Runperiod to be Repeated

OS:SurfaceConvectionAlgorithm:Inside,
  {cbee9a89-2eec-4008-b97b-a89c91531a14}, !- Handle
  TARP;                                   !- Algorithm

OS:SurfaceConvectionAlgorithm:Outside,
  {d714694a-74c2-4381-b5df-0a44d6102857}, !- Handle
  DOE-2;                                  !- Algorithm

OS:HeatBalanceAlgorithm,
  {1266bd05-1e7e-4c9e-aa67-afdbb1b0190f}, !- Handle
  ConductionTransferFunction,             !- Algorithm
  200;                                    !- Surface Temperature Upper Limit {C}

OS:ZoneAirHeatBalanceAlgorithm,
  {bf22a5d4-841a-4c84-9178-16dbe2816b46}, !- Handle
  ThirdOrderBackwardDifference;           !- Algorithm

OS:ConvergenceLimits,
  {1e91abf8-5aa2-4f18-a1fc-03bb86a18989}, !- Handle
  1;                                      !- Minimum System Timestep {minutes}

OS:ShadowCalculation,
  {8433ba10-876c-4865-8636-f497ad8ecffd}, !- Handle
  20,                                     !- Calculation Frequency
  15000;                                  !- Maximum Figures in Shadow Overlap Calculations

OS:Site,
  {92adc208-8d6a-4763-975a-364822e25141}, !- Handle
  Site 1,                                 !- Name
  41.77,                                  !- Latitude {deg}
  -87.75,                                 !- Longitude {deg}
  -6,                                     !- Time Zone {hr}
  190,                                    !- Elevation {m}
  ;                                       !- Terrain

OS:Site:GroundTemperature:BuildingSurface,
  {5ff7b875-68e0-4970-8369-9351fc161880}, !- Handle
  19.527,                                 !- January Ground Temperature {C}
  19.502,                                 !- February Ground Temperature {C}
  19.536,                                 !- March Ground Temperature {C}
  19.598,                                 !- April Ground Temperature {C}
  20.002,                                 !- May Ground Temperature {C}
  21.64,                                  !- June Ground Temperature {C}
  22.225,                                 !- July Ground Temperature {C}
  22.375,                                 !- August Ground Temperature {C}
  21.449,                                 !- September Ground Temperature {C}
  20.121,                                 !- October Ground Temperature {C}
  19.802,                                 !- November Ground Temperature {C}
  19.633;                                 !- December Ground Temperature {C}

OS:Site:WaterMainsTemperature,
  {064cb0d6-b659-43ad-89ca-5818a45822ef}, !- Handle
  Correlation,                            !- Calculation Method
  ,                                       !- Temperature Schedule Name
  9.69,                                   !- Annual Average Outdoor Air Temperature {C}
  28.1;                                   !- Maximum Difference In Monthly Average Outdoor Air Temperatures {deltaC}

OS:SizingPeriod:DesignDay,
  {3cd1f83b-3166-4643-ac7f-bb8cfc3acea4}, !- Handle
  Sizing Period Design Day 1,             !- Name
  -20.6,                                  !- Maximum Dry-Bulb Temperature {C}
  0,                                      !- Daily Dry-Bulb Temperature Range {deltaC}
  -20.6,                                  !- Humidity Indicating Conditions at Maximum Dry-Bulb
  99063,                                  !- Barometric Pressure {Pa}
  4.9,                                    !- Wind Speed {m/s}
  270,                                    !- Wind Direction {deg}
  0,                                      !- Sky Clearness
  0,                                      !- Rain Indicator
  0,                                      !- Snow Indicator
  21,                                     !- Day of Month
  1,                                      !- Month
  WinterDesignDay,                        !- Day Type
  0,                                      !- Daylight Saving Time Indicator
  WetBulb,                                !- Humidity Indicating Type
  ,                                       !- Humidity Indicating Day Schedule Name
  DefaultMultipliers,                     !- Dry-Bulb Temperature Range Modifier Type
  ,                                       !- Dry-Bulb Temperature Range Modifier Schedule Name
  AshraeClearSky;                         !- Solar Model Indicator

OS:SizingPeriod:DesignDay,
  {cc73902b-4357-483d-9284-eabddffd8635}, !- Handle
  Sizing Period Design Day 2,             !- Name
  33.2,                                   !- Maximum Dry-Bulb Temperature {C}
  10.7,                                   !- Daily Dry-Bulb Temperature Range {deltaC}
  23.8,                                   !- Humidity Indicating Conditions at Maximum Dry-Bulb
  99063,                                  !- Barometric Pressure {Pa}
  5.3,                                    !- Wind Speed {m/s}
  230,                                    !- Wind Direction {deg}
  1,                                      !- Sky Clearness
  0,                                      !- Rain Indicator
  0,                                      !- Snow Indicator
  21,                                     !- Day of Month
  7,                                      !- Month
  SummerDesignDay,                        !- Day Type
  0,                                      !- Daylight Saving Time Indicator
  WetBulb,                                !- Humidity Indicating Type
  ,                                       !- Humidity Indicating Day Schedule Name
  DefaultMultipliers,                     !- Dry-Bulb Temperature Range Modifier Type
  ,                                       !- Dry-Bulb Temperature Range Modifier Schedule Name
  AshraeClearSky;                         !- Solar Model Indicator

OS:ScheduleTypeLimits,
  {67e9a96c-bd23-4f49-ab1f-57c9c127e0c1}, !- Handle
  Temperature,                            !- Name
  -60,                                    !- Lower Limit Value
  200,                                    !- Upper Limit Value
  CONTINUOUS,                             !- Numeric Type
  Temperature;                            !- Unit Type

OS:DefaultScheduleSet,
  {73f206f9-1e3a-44c1-9a2e-57af93343e92}, !- Handle
  Default Schedules,                      !- Name
  ,                                       !- Hours of Operation Schedule Name
  {178b8872-2f71-421c-ab22-90d5f36fc22f}, !- Number of People Schedule Name
  {6ec905ae-297d-48c5-8eda-6e3ddf15a71b}, !- People Activity Level Schedule Name
  {2ed7284b-dac8-424b-b478-fadd34658a05}, !- Lighting Schedule Name
  {0847813e-2953-4520-b7d4-80fa5f918756}, !- Electric Equipment Schedule Name
  {864f390d-ac10-4f52-8d59-f25aa38146f2}, !- Gas Equipment Schedule Name
  {9f58437a-c5a8-428a-b201-cbda7dabbc4d}, !- Hot Water Equipment Schedule Name
  {ec8c2066-e7f8-46bf-b63e-6ee95e66ca7d}, !- Infiltration Schedule Name
  ,                                       !- Steam Equipment Schedule Name
  ;                                       !- Other Equipment Schedule Name

OS:Schedule:Ruleset,
  {178b8872-2f71-421c-ab22-90d5f36fc22f}, !- Handle
  Medium Office Number of People Schedule, !- Name
  {84b8803e-58d9-4004-b396-7035b64b3b19}, !- Schedule Type Limits Name
  {367b443c-55ed-4c79-b66e-8a271caaed15}, !- Default Day Schedule Name
  {54e9adc1-80bf-4257-bfe6-01ee062225e6}; !- Summer Design Day Schedule Name

OS:Schedule:Day,
  {367b443c-55ed-4c79-b66e-8a271caaed15}, !- Handle
  Medium Office Number of People All Other Days Schedule, !- Name
  {84b8803e-58d9-4004-b396-7035b64b3b19}, !- Schedule Type Limits Name
  ,                                       !- Interpolate to Timestep
  24,                                     !- Hour 1
  0,                                      !- Minute 1
  0;                                      !- Value Until Time 1

OS:Schedule:Day,
  {6a5ea43f-6e8f-4c32-815f-fb0f48a695eb}, !- Handle
  Medium Office Number of People Summer Design Day Schedule, !- Name
  ,                                       !- Schedule Type Limits Name
  ,                                       !- Interpolate to Timestep
  6,                                      !- Hour 1
  0,                                      !- Minute 1
  0,                                      !- Value Until Time 1
  22,                                     !- Hour 2
  0,                                      !- Minute 2
  1,                                      !- Value Until Time 2
  24,                                     !- Hour 3
  0,                                      !- Minute 3
  0.05;                                   !- Value Until Time 3

OS:Schedule:Day,
  {54e9adc1-80bf-4257-bfe6-01ee062225e6}, !- Handle
  Medium Office Number of People Summer Design Day Schedule 1, !- Name
  {84b8803e-58d9-4004-b396-7035b64b3b19}, !- Schedule Type Limits Name
  ,                                       !- Interpolate to Timestep
  6,                                      !- Hour 1
  0,                                      !- Minute 1
  0,                                      !- Value Until Time 1
  22,                                     !- Hour 2
  0,                                      !- Minute 2
  1,                                      !- Value Until Time 2
  24,                                     !- Hour 3
  0,                                      !- Minute 3
  0.05;                                   !- Value Until Time 3

OS:Schedule:Rule,
  {714401e0-6147-420d-b4ed-89889abd3e94}, !- Handle
  Medium Office Number of People Schedule Weekdays Rule, !- Name
  {178b8872-2f71-421c-ab22-90d5f36fc22f}, !- Schedule Ruleset Name
  1,                                      !- Rule Order
  {9b59f93a-50fb-482a-8fe5-457524dc52cf}, !- Day Schedule Name
  ,                                       !- Apply Sunday
  Yes,                                    !- Apply Monday
  Yes,                                    !- Apply Tuesday
  Yes,                                    !- Apply Wednesday
  Yes,                                    !- Apply Thursday
  Yes;                                    !- Apply Friday

OS:Schedule:Day,
  {9b59f93a-50fb-482a-8fe5-457524dc52cf}, !- Handle
  Medium Office Number of People Weekdays Schedule, !- Name
  {84b8803e-58d9-4004-b396-7035b64b3b19}, !- Schedule Type Limits Name
  ,                                       !- Interpolate to Timestep
  6,                                      !- Hour 1
  0,                                      !- Minute 1
  0,                                      !- Value Until Time 1
  7,                                      !- Hour 2
  0,                                      !- Minute 2
  0.1,                                    !- Value Until Time 2
  8,                                      !- Hour 3
  0,                                      !- Minute 3
  0.2,                                    !- Value Until Time 3
  12,                                     !- Hour 4
  0,                                      !- Minute 4
  0.95,                                   !- Value Until Time 4
  13,                                     !- Hour 5
  0,                                      !- Minute 5
  0.5,                                    !- Value Until Time 5
  17,                                     !- Hour 6
  0,                                      !- Minute 6
  0.95,                                   !- Value Until Time 6
  18,                                     !- Hour 7
  0,                                      !- Minute 7
  0.7,                                    !- Value Until Time 7
  20,                                     !- Hour 8
  0,                                      !- Minute 8
  0.4,                                    !- Value Until Time 8
  22,                                     !- Hour 9
  0,                                      !- Minute 9
  0.1,                                    !- Value Until Time 9
  24,                                     !- Hour 10
  0,                                      !- Minute 10
  0.05;                                   !- Value Until Time 10

OS:Schedule:Rule,
  {f4ee87fb-8dfd-4e3d-8c9b-63f1d731091a}, !- Handle
  Medium Office Number of People Schedule Saturday Rule, !- Name
  {178b8872-2f71-421c-ab22-90d5f36fc22f}, !- Schedule Ruleset Name
  0,                                      !- Rule Order
  {2dacbd7c-7b5e-4529-a537-59231c536e80}, !- Day Schedule Name
  ,                                       !- Apply Sunday
  ,                                       !- Apply Monday
  ,                                       !- Apply Tuesday
  ,                                       !- Apply Wednesday
  ,                                       !- Apply Thursday
  ,                                       !- Apply Friday
  Yes;                                    !- Apply Saturday

OS:Schedule:Day,
  {2dacbd7c-7b5e-4529-a537-59231c536e80}, !- Handle
  Medium Office Number of People Saturday Schedule, !- Name
  {84b8803e-58d9-4004-b396-7035b64b3b19}, !- Schedule Type Limits Name
  ,                                       !- Interpolate to Timestep
  6,                                      !- Hour 1
  0,                                      !- Minute 1
  0,                                      !- Value Until Time 1
  8,                                      !- Hour 2
  0,                                      !- Minute 2
  0.1,                                    !- Value Until Time 2
  14,                                     !- Hour 3
  0,                                      !- Minute 3
  0.5,                                    !- Value Until Time 3
  17,                                     !- Hour 4
  0,                                      !- Minute 4
  0.1,                                    !- Value Until Time 4
  24,                                     !- Hour 5
  0,                                      !- Minute 5
  0;                                      !- Value Until Time 5

OS:ScheduleTypeLimits,
  {84b8803e-58d9-4004-b396-7035b64b3b19}, !- Handle
  Fractional,                             !- Name
  0,                                      !- Lower Limit Value
  1,                                      !- Upper Limit Value
  Continuous;                             !- Numeric Type

OS:Schedule:Ruleset,
  {6ec905ae-297d-48c5-8eda-6e3ddf15a71b}, !- Handle
  Medium Office People Activity Level Schedule, !- Name
  {eb371334-c9cf-4187-b0e2-cfcb834bace3}, !- Schedule Type Limits Name
  {139f092c-c7ab-4d0c-8874-6050aba0366a}; !- Default Day Schedule Name

OS:Schedule:Day,
  {139f092c-c7ab-4d0c-8874-6050aba0366a}, !- Handle
  Medium Office People Activity Level All Days Schedule, !- Name
  {eb371334-c9cf-4187-b0e2-cfcb834bace3}, !- Schedule Type Limits Name
  ,                                       !- Interpolate to Timestep
  24,                                     !- Hour 1
  0,                                      !- Minute 1
  120;                                    !- Value Until Time 1

OS:ScheduleTypeLimits,
  {eb371334-c9cf-4187-b0e2-cfcb834bace3}, !- Handle
  ActivityLevel,                          !- Name
  0,                                      !- Lower Limit Value
  ,                                       !- Upper Limit Value
  Continuous,                             !- Numeric Type
  ActivityLevel;                          !- Unit Type

OS:Schedule:Ruleset,
  {2ed7284b-dac8-424b-b478-fadd34658a05}, !- Handle
  Medium Office Lighting Schedule,        !- Name
  {84b8803e-58d9-4004-b396-7035b64b3b19}, !- Schedule Type Limits Name
  {1c7fc7cc-6558-4752-9746-bc15864bb438}, !- Default Day Schedule Name
  {4eb1d75d-1be0-407d-ab3e-234f2ec3a560}, !- Summer Design Day Schedule Name
  {0c4d6a00-af90-40c7-a69c-e3f6c5b7a2ef}; !- Winter Design Day Schedule Name

OS:Schedule:Day,
  {1c7fc7cc-6558-4752-9746-bc15864bb438}, !- Handle
  Medium Office Lighting All Other Days Schedule, !- Name
  {84b8803e-58d9-4004-b396-7035b64b3b19}, !- Schedule Type Limits Name
  ,                                       !- Interpolate to Timestep
  24,                                     !- Hour 1
  0,                                      !- Minute 1
  0.05;                                   !- Value Until Time 1

OS:Schedule:Day,
  {bbc69cce-ce4d-4d8f-8ca8-5cad2a0074eb}, !- Handle
  Medium Office Lighting Summer Design Day Schedule, !- Name
  ,                                       !- Schedule Type Limits Name
  ,                                       !- Interpolate to Timestep
  6,                                      !- Hour 1
  0,                                      !- Minute 1
  1,                                      !- Value Until Time 1
  24,                                     !- Hour 2
  0,                                      !- Minute 2
  0;                                      !- Value Until Time 2

OS:Schedule:Day,
  {4eb1d75d-1be0-407d-ab3e-234f2ec3a560}, !- Handle
  Medium Office Lighting Summer Design Day Schedule 1, !- Name
  {84b8803e-58d9-4004-b396-7035b64b3b19}, !- Schedule Type Limits Name
  ,                                       !- Interpolate to Timestep
  6,                                      !- Hour 1
  0,                                      !- Minute 1
  1,                                      !- Value Until Time 1
  24,                                     !- Hour 2
  0,                                      !- Minute 2
  0;                                      !- Value Until Time 2

OS:Schedule:Day,
  {b6c2d5ab-ad48-49bc-a898-d380d3721278}, !- Handle
  Medium Office Lighting Winter Design Day Schedule, !- Name
  ,                                       !- Schedule Type Limits Name
  ,                                       !- Interpolate to Timestep
  24,                                     !- Hour 1
  0,                                      !- Minute 1
  0;                                      !- Value Until Time 1

OS:Schedule:Day,
  {0c4d6a00-af90-40c7-a69c-e3f6c5b7a2ef}, !- Handle
  Medium Office Lighting Winter Design Day Schedule 1, !- Name
  {84b8803e-58d9-4004-b396-7035b64b3b19}, !- Schedule Type Limits Name
  ,                                       !- Interpolate to Timestep
  24,                                     !- Hour 1
  0,                                      !- Minute 1
  0;                                      !- Value Until Time 1

OS:Schedule:Rule,
  {e5edf22b-3b4a-4469-af67-1b22396fa9a2}, !- Handle
  Medium Office Lighting Schedule Weekdays Rule, !- Name
  {2ed7284b-dac8-424b-b478-fadd34658a05}, !- Schedule Ruleset Name
  1,                                      !- Rule Order
  {67afd352-eed9-4397-8bf4-fca8a68c9621}, !- Day Schedule Name
  ,                                       !- Apply Sunday
  Yes,                                    !- Apply Monday
  Yes,                                    !- Apply Tuesday
  Yes,                                    !- Apply Wednesday
  Yes,                                    !- Apply Thursday
  Yes;                                    !- Apply Friday

OS:Schedule:Day,
  {67afd352-eed9-4397-8bf4-fca8a68c9621}, !- Handle
  Medium Office Lighting Weekdays Schedule, !- Name
  {84b8803e-58d9-4004-b396-7035b64b3b19}, !- Schedule Type Limits Name
  ,                                       !- Interpolate to Timestep
  5,                                      !- Hour 1
  0,                                      !- Minute 1
  0.05,                                   !- Value Until Time 1
  7,                                      !- Hour 2
  0,                                      !- Minute 2
  0.1,                                    !- Value Until Time 2
  8,                                      !- Hour 3
  0,                                      !- Minute 3
  0.3,                                    !- Value Until Time 3
  17,                                     !- Hour 4
  0,                                      !- Minute 4
  0.9,                                    !- Value Until Time 4
  18,                                     !- Hour 5
  0,                                      !- Minute 5
  0.7,                                    !- Value Until Time 5
  20,                                     !- Hour 6
  0,                                      !- Minute 6
  0.5,                                    !- Value Until Time 6
  22,                                     !- Hour 7
  0,                                      !- Minute 7
  0.3,                                    !- Value Until Time 7
  23,                                     !- Hour 8
  0,                                      !- Minute 8
  0.1,                                    !- Value Until Time 8
  24,                                     !- Hour 9
  0,                                      !- Minute 9
  0.05;                                   !- Value Until Time 9

OS:Schedule:Rule,
  {16bc27bd-065c-4a3f-9946-4839e9c6d1b0}, !- Handle
  Medium Office Lighting Schedule Saturday Rule, !- Name
  {2ed7284b-dac8-424b-b478-fadd34658a05}, !- Schedule Ruleset Name
  0,                                      !- Rule Order
  {853a9b59-b837-489c-a284-c86824fc1da5}, !- Day Schedule Name
  ,                                       !- Apply Sunday
  ,                                       !- Apply Monday
  ,                                       !- Apply Tuesday
  ,                                       !- Apply Wednesday
  ,                                       !- Apply Thursday
  ,                                       !- Apply Friday
  Yes;                                    !- Apply Saturday

OS:Schedule:Day,
  {853a9b59-b837-489c-a284-c86824fc1da5}, !- Handle
  Medium Office Lighting Saturday Schedule, !- Name
  {84b8803e-58d9-4004-b396-7035b64b3b19}, !- Schedule Type Limits Name
  ,                                       !- Interpolate to Timestep
  6,                                      !- Hour 1
  0,                                      !- Minute 1
  0.05,                                   !- Value Until Time 1
  8,                                      !- Hour 2
  0,                                      !- Minute 2
  0.1,                                    !- Value Until Time 2
  14,                                     !- Hour 3
  0,                                      !- Minute 3
  0.5,                                    !- Value Until Time 3
  17,                                     !- Hour 4
  0,                                      !- Minute 4
  0.15,                                   !- Value Until Time 4
  24,                                     !- Hour 5
  0,                                      !- Minute 5
  0.05;                                   !- Value Until Time 5

OS:Schedule:Ruleset,
  {0847813e-2953-4520-b7d4-80fa5f918756}, !- Handle
  Medium Office Electric Equipment Schedule, !- Name
  {84b8803e-58d9-4004-b396-7035b64b3b19}, !- Schedule Type Limits Name
  {3095cfe3-c371-4630-89f6-261ea6758965}, !- Default Day Schedule Name
  {f23846e8-c863-4cb7-9e4d-efe54fa4ef86}, !- Summer Design Day Schedule Name
  {a98cee1e-1dae-4d57-aa81-7832c28627f3}; !- Winter Design Day Schedule Name

OS:Schedule:Day,
  {3095cfe3-c371-4630-89f6-261ea6758965}, !- Handle
  Medium Office Electric Equipment All Other Days Schedule, !- Name
  {84b8803e-58d9-4004-b396-7035b64b3b19}, !- Schedule Type Limits Name
  ,                                       !- Interpolate to Timestep
  24,                                     !- Hour 1
  0,                                      !- Minute 1
  0.3;                                    !- Value Until Time 1

OS:Schedule:Day,
  {ce6e13bf-609f-4fc2-b3e3-4f42f93763a5}, !- Handle
  Medium Office Electric Equipment Summer Design Day Schedule, !- Name
  ,                                       !- Schedule Type Limits Name
  ,                                       !- Interpolate to Timestep
  6,                                      !- Hour 1
  0,                                      !- Minute 1
  1,                                      !- Value Until Time 1
  24,                                     !- Hour 2
  0,                                      !- Minute 2
  0;                                      !- Value Until Time 2

OS:Schedule:Day,
  {f23846e8-c863-4cb7-9e4d-efe54fa4ef86}, !- Handle
  Medium Office Electric Equipment Summer Design Day Schedule 1, !- Name
  {84b8803e-58d9-4004-b396-7035b64b3b19}, !- Schedule Type Limits Name
  ,                                       !- Interpolate to Timestep
  6,                                      !- Hour 1
  0,                                      !- Minute 1
  1,                                      !- Value Until Time 1
  24,                                     !- Hour 2
  0,                                      !- Minute 2
  0;                                      !- Value Until Time 2

OS:Schedule:Day,
  {b88b06bf-31c9-42e6-9a1d-b88c443c3794}, !- Handle
  Medium Office Electric Equipment Winter Design Day Schedule, !- Name
  ,                                       !- Schedule Type Limits Name
  ,                                       !- Interpolate to Timestep
  24,                                     !- Hour 1
  0,                                      !- Minute 1
  0;                                      !- Value Until Time 1

OS:Schedule:Day,
  {a98cee1e-1dae-4d57-aa81-7832c28627f3}, !- Handle
  Medium Office Electric Equipment Winter Design Day Schedule 1, !- Name
  {84b8803e-58d9-4004-b396-7035b64b3b19}, !- Schedule Type Limits Name
  ,                                       !- Interpolate to Timestep
  24,                                     !- Hour 1
  0,                                      !- Minute 1
  0;                                      !- Value Until Time 1

OS:Schedule:Rule,
  {62499ccd-664b-42f6-ad59-aeb76ba7d3c4}, !- Handle
  Medium Office Electric Equipment Schedule Weekdays Rule, !- Name
  {0847813e-2953-4520-b7d4-80fa5f918756}, !- Schedule Ruleset Name
  1,                                      !- Rule Order
  {dcd4be78-ace8-44f7-ad17-b2e9a26e4772}, !- Day Schedule Name
  ,                                       !- Apply Sunday
  Yes,                                    !- Apply Monday
  Yes,                                    !- Apply Tuesday
  Yes,                                    !- Apply Wednesday
  Yes,                                    !- Apply Thursday
  Yes;                                    !- Apply Friday

OS:Schedule:Day,
  {dcd4be78-ace8-44f7-ad17-b2e9a26e4772}, !- Handle
  Medium Office Electric Equipment Weekdays Schedule, !- Name
  {84b8803e-58d9-4004-b396-7035b64b3b19}, !- Schedule Type Limits Name
  ,                                       !- Interpolate to Timestep
  8,                                      !- Hour 1
  0,                                      !- Minute 1
  0.4,                                    !- Value Until Time 1
  12,                                     !- Hour 2
  0,                                      !- Minute 2
  0.9,                                    !- Value Until Time 2
  13,                                     !- Hour 3
  0,                                      !- Minute 3
  0.8,                                    !- Value Until Time 3
  17,                                     !- Hour 4
  0,                                      !- Minute 4
  0.9,                                    !- Value Until Time 4
  18,                                     !- Hour 5
  0,                                      !- Minute 5
  0.8,                                    !- Value Until Time 5
  20,                                     !- Hour 6
  0,                                      !- Minute 6
  0.6,                                    !- Value Until Time 6
  22,                                     !- Hour 7
  0,                                      !- Minute 7
  0.5,                                    !- Value Until Time 7
  24,                                     !- Hour 8
  0,                                      !- Minute 8
  0.4;                                    !- Value Until Time 8

OS:Schedule:Rule,
  {91da05b9-4ef7-4fc9-a10c-e9d99f64c826}, !- Handle
  Medium Office Electric Equipment Schedule Saturday Rule, !- Name
  {0847813e-2953-4520-b7d4-80fa5f918756}, !- Schedule Ruleset Name
  0,                                      !- Rule Order
  {18293954-888c-4d92-9252-30ddbb1d3dec}, !- Day Schedule Name
  ,                                       !- Apply Sunday
  ,                                       !- Apply Monday
  ,                                       !- Apply Tuesday
  ,                                       !- Apply Wednesday
  ,                                       !- Apply Thursday