
OS:Version,
  {80eab74a-d130-4779-93a1-58a35318e298}, !- Handle
  1.13.1;                                 !- Version Identifier

OS:SimulationControl,
  {b2742f8a-b2c4-4ff6-a2e1-1fa32ba31328}, !- Handle
  Yes,                                    !- Do Zone Sizing Calculation
  Yes,                                    !- Do System Sizing Calculation
  ,                                       !- Do Plant Sizing Calculation
  No,                                     !- Run Simulation for Sizing Periods
  Yes;                                    !- Run Simulation for Weather File Run Periods

OS:Timestep,
  {3f2ed556-363c-4639-a058-890f5a15e27d}, !- Handle
  6;                                      !- Number of Timesteps per Hour

OS:RunPeriod,
  {efe8394d-8684-409a-8951-9a5016cd16f5}, !- Handle
  Run Period 1,                           !- Name
  1,                                      !- Begin Month
  1,                                      !- Begin Day of Month
  12,                                     !- End Month
  31,                                     !- End Day of Month
  No,                                     !- Use Weather File Holidays and Special Days
  No,                                     !- Use Weather File Daylight Saving Period
  No,                                     !- Apply Weekend Holiday Rule
  Yes,                                    !- Use Weather File Rain Indicators
  Yes,                                    !- Use Weather File Snow Indicators
  1;                                      !- Number of Times Runperiod to be Repeated

OS:SurfaceConvectionAlgorithm:Inside,
  {c8eea256-cac0-4508-bf8f-69921098965f}, !- Handle
  TARP;                                   !- Algorithm

OS:SurfaceConvectionAlgorithm:Outside,
  {a8071c11-9cd5-4b37-9802-8020c26c94c7}, !- Handle
  DOE-2;                                  !- Algorithm

OS:HeatBalanceAlgorithm,
  {c78c1689-993d-44a9-8c66-35f3de8247bf}, !- Handle
  ConductionTransferFunction,             !- Algorithm
  200;                                    !- Surface Temperature Upper Limit {C}

OS:ZoneAirHeatBalanceAlgorithm,
  {23e8b785-1e97-4ec3-aa45-c6c2976a1ee5}, !- Handle
  ThirdOrderBackwardDifference;           !- Algorithm

OS:ConvergenceLimits,
  {77b241f1-3283-44aa-ac02-4dc805a0f60e}, !- Handle
  1;                                      !- Minimum System Timestep {minutes}

OS:ShadowCalculation,
  {db027f0b-a5d6-41d0-b07d-3a0651d4e18b}, !- Handle
  20,                                     !- Calculation Frequency
  15000;                                  !- Maximum Figures in Shadow Overlap Calculations

OS:Site,
  {0ce6c4fb-1a9f-4c72-8d14-f97ce4caa5e2}, !- Handle
  Site 1,                                 !- Name
  41.77,                                  !- Latitude {deg}
  -87.75,                                 !- Longitude {deg}
  -6,                                     !- Time Zone {hr}
  190,                                    !- Elevation {m}
  ;                                       !- Terrain

OS:Site:GroundTemperature:BuildingSurface,
  {538572ff-ebf2-41b1-91aa-2e6415338222}, !- Handle
  19.527,                                 !- January Ground Temperature {C}
  19.502,                                 !- February Ground Temperature {C}
  19.536,                                 !- March Ground Temperature {C}
  19.598,                                 !- April Ground Temperature {C}
  20.002,                                 !- May Ground Temperature {C}
  21.64,                                  !- June Ground Temperature {C}
  22.225,                                 !- July Ground Temperature {C}
  22.375,                                 !- August Ground Temperature {C}
  21.449,                                 !- September Ground Temperature {C}
  20.121,                                 !- October Ground Temperature {C}
  19.802,                                 !- November Ground Temperature {C}
  19.633;                                 !- December Ground Temperature {C}

OS:Site:GroundTemperature:Deep,
  {499cf5e6-d2db-40c3-8119-f42a91bc5aef}, !- Handle
  19.527,                                 !- January Deep Ground Temperature {C}
  19.502,                                 !- February Deep Ground Temperature {C}
  19.536,                                 !- March Deep Ground Temperature {C}
  19.598,                                 !- April Deep Ground Temperature {C}
  20.002,                                 !- May Deep Ground Temperature {C}
  21.64,                                  !- June Deep Ground Temperature {C}
  22.225,                                 !- July Deep Ground Temperature {C}
  22.375,                                 !- August Deep Ground Temperature {C}
  21.449,                                 !- September Deep Ground Temperature {C}
  20.121,                                 !- October Deep Ground Temperature {C}
  19.802,                                 !- November Deep Ground Temperature {C}
  19.633;                                 !- December Deep Ground Temperature {C}

OS:Site:WaterMainsTemperature,
  {4f4e1d2b-fb7a-4db2-87e7-f52dade06f6e}, !- Handle
  Correlation,                            !- Calculation Method
  ,                                       !- Temperature Schedule Name
  9.69,                                   !- Annual Average Outdoor Air Temperature {C}
  28.1;                                   !- Maximum Difference In Monthly Average Outdoor Air Temperatures {deltaC}

OS:SizingPeriod:DesignDay,
  {8c66b6d8-5b9f-429c-85d9-dde18567f43c}, !- Handle
  Sizing Period Design Day 1,             !- Name
  -20.6,                                  !- Maximum Dry-Bulb Temperature {C}
  0,                                      !- Daily Dry-Bulb Temperature Range {deltaC}
  -20.6,                                  !- Humidity Indicating Conditions at Maximum Dry-Bulb
  99063,                                  !- Barometric Pressure {Pa}
  4.9,                                    !- Wind Speed {m/s}
  270,                                    !- Wind Direction {deg}
  0,                                      !- Sky Clearness
  0,                                      !- Rain Indicator
  0,                                      !- Snow Indicator
  21,                                     !- Day of Month
  1,                                      !- Month
  WinterDesignDay,                        !- Day Type
  0,                                      !- Daylight Saving Time Indicator
  WetBulb,                                !- Humidity Indicating Type
  ,                                       !- Humidity Indicating Day Schedule Name
  DefaultMultipliers,                     !- Dry-Bulb Temperature Range Modifier Type
  ,                                       !- Dry-Bulb Temperature Range Modifier Schedule Name
  AshraeClearSky;                         !- Solar Model Indicator

OS:SizingPeriod:DesignDay,
  {53d29ef0-cf54-454e-9e2c-e79c655e8002}, !- Handle
  Sizing Period Design Day 2,             !- Name
  33.2,                                   !- Maximum Dry-Bulb Temperature {C}
  10.7,                                   !- Daily Dry-Bulb Temperature Range {deltaC}
  23.8,                                   !- Humidity Indicating Conditions at Maximum Dry-Bulb
  99063,                                  !- Barometric Pressure {Pa}
  5.3,                                    !- Wind Speed {m/s}
  230,                                    !- Wind Direction {deg}
  1,                                      !- Sky Clearness
  0,                                      !- Rain Indicator
  0,                                      !- Snow Indicator
  21,                                     !- Day of Month
  7,                                      !- Month
  SummerDesignDay,                        !- Day Type
  0,                                      !- Daylight Saving Time Indicator
  WetBulb,                                !- Humidity Indicating Type
  ,                                       !- Humidity Indicating Day Schedule Name
  DefaultMultipliers,                     !- Dry-Bulb Temperature Range Modifier Type
  ,                                       !- Dry-Bulb Temperature Range Modifier Schedule Name
  AshraeClearSky;                         !- Solar Model Indicator

OS:ScheduleTypeLimits,
  {1921bbdd-10d0-495a-b3fe-b7f093e4a25e}, !- Handle
  Temperature,                            !- Name
  -60,                                    !- Lower Limit Value
  200,                                    !- Upper Limit Value
  CONTINUOUS,                             !- Numeric Type
  Temperature;                            !- Unit Type

OS:DefaultScheduleSet,
  {dc2cf449-72ed-4935-abc8-23d16de4b1c3}, !- Handle
  Default Schedules,                      !- Name
  ,                                       !- Hours of Operation Schedule Name
  {57e88d9e-6a96-4c48-a831-c7a3a7286a09}, !- Number of People Schedule Name
  {398974af-179f-47c9-a9e3-3a9d6a4d6804}, !- People Activity Level Schedule Name
  {325911ef-5379-40ee-8260-a999a50d856d}, !- Lighting Schedule Name
  {3c7569c7-0b16-4f4e-8525-c250070a163c}, !- Electric Equipment Schedule Name
  {15f5ada0-5dd9-415c-b525-026b07117a6f}, !- Gas Equipment Schedule Name
  {b1870869-c5ed-4f0b-a28b-87280228d9ab}, !- Hot Water Equipment Schedule Name
  {3bb8ced1-5dc1-4e84-b165-22554f462e18}, !- Infiltration Schedule Name
  ,                                       !- Steam Equipment Schedule Name
  ;                                       !- Other Equipment Schedule Name

OS:Schedule:Ruleset,
  {57e88d9e-6a96-4c48-a831-c7a3a7286a09}, !- Handle
  Medium Office Number of People Schedule, !- Name
  {8667882d-241d-4253-a0cc-6b1f72a136d6}, !- Schedule Type Limits Name
  {c8974fb7-3ed8-454b-b9e7-3154669bb932}, !- Default Day Schedule Name
  {051ccd5f-6df4-457f-8fd4-ab46a1ebad81}; !- Summer Design Day Schedule Name

OS:Schedule:Day,
  {c8974fb7-3ed8-454b-b9e7-3154669bb932}, !- Handle
  Medium Office Number of People All Other Days Schedule, !- Name
  {8667882d-241d-4253-a0cc-6b1f72a136d6}, !- Schedule Type Limits Name
  ,                                       !- Interpolate to Timestep
  24,                                     !- Hour 1
  0,                                      !- Minute 1
  0;                                      !- Value Until Time 1

OS:Schedule:Day,
  {ab980685-fb81-4236-820e-95b18ee7495e}, !- Handle
  Medium Office Number of People Summer Design Day Schedule, !- Name
  ,                                       !- Schedule Type Limits Name
  ,                                       !- Interpolate to Timestep
  6,                                      !- Hour 1
  0,                                      !- Minute 1
  0,                                      !- Value Until Time 1
  22,                                     !- Hour 2
  0,                                      !- Minute 2
  1,                                      !- Value Until Time 2
  24,                                     !- Hour 3
  0,                                      !- Minute 3
  0.05;                                   !- Value Until Time 3

OS:Schedule:Day,
  {051ccd5f-6df4-457f-8fd4-ab46a1ebad81}, !- Handle
  Medium Office Number of People Summer Design Day Schedule 1, !- Name
  {8667882d-241d-4253-a0cc-6b1f72a136d6}, !- Schedule Type Limits Name
  ,                                       !- Interpolate to Timestep
  6,                                      !- Hour 1
  0,                                      !- Minute 1
  0,                                      !- Value Until Time 1
  22,                                     !- Hour 2
  0,                                      !- Minute 2
  1,                                      !- Value Until Time 2
  24,                                     !- Hour 3
  0,                                      !- Minute 3
  0.05;                                   !- Value Until Time 3

OS:Schedule:Rule,
  {2815ba50-7c56-47d8-8366-d58fa5ee5958}, !- Handle
  Medium Office Number of People Schedule Weekdays Rule, !- Name
  {57e88d9e-6a96-4c48-a831-c7a3a7286a09}, !- Schedule Ruleset Name
  1,                                      !- Rule Order
  {3d129600-4604-47e2-88f2-ea9e73d7ca65}, !- Day Schedule Name
  ,                                       !- Apply Sunday
  Yes,                                    !- Apply Monday
  Yes,                                    !- Apply Tuesday
  Yes,                                    !- Apply Wednesday
  Yes,                                    !- Apply Thursday
  Yes;                                    !- Apply Friday

OS:Schedule:Day,
  {3d129600-4604-47e2-88f2-ea9e73d7ca65}, !- Handle
  Medium Office Number of People Weekdays Schedule, !- Name
  {8667882d-241d-4253-a0cc-6b1f72a136d6}, !- Schedule Type Limits Name
  ,                                       !- Interpolate to Timestep
  6,                                      !- Hour 1
  0,                                      !- Minute 1
  0,                                      !- Value Until Time 1
  7,                                      !- Hour 2
  0,                                      !- Minute 2
  0.1,                                    !- Value Until Time 2
  8,                                      !- Hour 3
  0,                                      !- Minute 3
  0.2,                                    !- Value Until Time 3
  12,                                     !- Hour 4
  0,                                      !- Minute 4
  0.95,                                   !- Value Until Time 4
  13,                                     !- Hour 5
  0,                                      !- Minute 5
  0.5,                                    !- Value Until Time 5
  17,                                     !- Hour 6
  0,                                      !- Minute 6
  0.95,                                   !- Value Until Time 6
  18,                                     !- Hour 7
  0,                                      !- Minute 7
  0.7,                                    !- Value Until Time 7
  20,                                     !- Hour 8
  0,                                      !- Minute 8
  0.4,                                    !- Value Until Time 8
  22,                                     !- Hour 9
  0,                                      !- Minute 9
  0.1,                                    !- Value Until Time 9
  24,                                     !- Hour 10
  0,                                      !- Minute 10
  0.05;                                   !- Value Until Time 10

OS:Schedule:Rule,
  {5ae76917-b75f-4ef7-abff-0935aa310515}, !- Handle
  Medium Office Number of People Schedule Saturday Rule, !- Name
  {57e88d9e-6a96-4c48-a831-c7a3a7286a09}, !- Schedule Ruleset Name
  0,                                      !- Rule Order
  {8f3f39ff-c3ac-4030-a0ea-28d1a33028a4}, !- Day Schedule Name
  ,                                       !- Apply Sunday
  ,                                       !- Apply Monday
  ,                                       !- Apply Tuesday
  ,                                       !- Apply Wednesday
  ,                                       !- Apply Thursday
  ,                                       !- Apply Friday
  Yes;                                    !- Apply Saturday

OS:Schedule:Day,
  {8f3f39ff-c3ac-4030-a0ea-28d1a33028a4}, !- Handle
  Medium Office Number of People Saturday Schedule, !- Name
  {8667882d-241d-4253-a0cc-6b1f72a136d6}, !- Schedule Type Limits Name
  ,                                       !- Interpolate to Timestep
  6,                                      !- Hour 1
  0,                                      !- Minute 1
  0,                                      !- Value Until Time 1
  8,                                      !- Hour 2
  0,                                      !- Minute 2
  0.1,                                    !- Value Until Time 2
  14,                                     !- Hour 3
  0,                                      !- Minute 3
  0.5,                                    !- Value Until Time 3
  17,                                     !- Hour 4
  0,                                      !- Minute 4
  0.1,                                    !- Value Until Time 4
  24,                                     !- Hour 5
  0,                                      !- Minute 5
  0;                                      !- Value Until Time 5

OS:ScheduleTypeLimits,
  {8667882d-241d-4253-a0cc-6b1f72a136d6}, !- Handle
  Fractional,                             !- Name
  0,                                      !- Lower Limit Value
  1,                                      !- Upper Limit Value
  Continuous;                             !- Numeric Type

OS:Schedule:Ruleset,
  {398974af-179f-47c9-a9e3-3a9d6a4d6804}, !- Handle
  Medium Office People Activity Level Schedule, !- Name
  {3689d0c9-8d0b-4aa9-b2b4-82ad19bf7485}, !- Schedule Type Limits Name
  {aa6fc44d-2ac9-4808-9e15-8ba9b1a0302a}; !- Default Day Schedule Name

OS:Schedule:Day,
  {aa6fc44d-2ac9-4808-9e15-8ba9b1a0302a}, !- Handle
  Medium Office People Activity Level All Days Schedule, !- Name
  {3689d0c9-8d0b-4aa9-b2b4-82ad19bf7485}, !- Schedule Type Limits Name
  ,                                       !- Interpolate to Timestep
  24,                                     !- Hour 1
  0,                                      !- Minute 1
  120;                                    !- Value Until Time 1

OS:ScheduleTypeLimits,
  {3689d0c9-8d0b-4aa9-b2b4-82ad19bf7485}, !- Handle
  ActivityLevel,                          !- Name
  0,                                      !- Lower Limit Value
  ,                                       !- Upper Limit Value
  Continuous,                             !- Numeric Type
  ActivityLevel;                          !- Unit Type

OS:Schedule:Ruleset,
  {325911ef-5379-40ee-8260-a999a50d856d}, !- Handle
  Medium Office Lighting Schedule,        !- Name
  {8667882d-241d-4253-a0cc-6b1f72a136d6}, !- Schedule Type Limits Name
  {0a9e590f-db94-498d-a2e7-b6c1db5a9c88}, !- Default Day Schedule Name
  {9c4f50d2-1f92-4f13-882b-e2f1f80e99b9}, !- Summer Design Day Schedule Name
  {54a08b79-c583-4473-a88f-9511c08f5785}; !- Winter Design Day Schedule Name

OS:Schedule:Day,
  {0a9e590f-db94-498d-a2e7-b6c1db5a9c88}, !- Handle
  Medium Office Lighting All Other Days Schedule, !- Name
  {8667882d-241d-4253-a0cc-6b1f72a136d6}, !- Schedule Type Limits Name
  ,                                       !- Interpolate to Timestep
  24,                                     !- Hour 1
  0,                                      !- Minute 1
  0.05;                                   !- Value Until Time 1

OS:Schedule:Day,
  {15e68d1e-4735-4fe4-89b6-784824f6f448}, !- Handle
  Medium Office Lighting Summer Design Day Schedule, !- Name
  ,                                       !- Schedule Type Limits Name
  ,                                       !- Interpolate to Timestep
  6,                                      !- Hour 1
  0,                                      !- Minute 1
  1,                                      !- Value Until Time 1
  24,                                     !- Hour 2
  0,                                      !- Minute 2
  0;                                      !- Value Until Time 2

OS:Schedule:Day,
  {9c4f50d2-1f92-4f13-882b-e2f1f80e99b9}, !- Handle
  Medium Office Lighting Summer Design Day Schedule 1, !- Name
  {8667882d-241d-4253-a0cc-6b1f72a136d6}, !- Schedule Type Limits Name
  ,                                       !- Interpolate to Timestep
  6,                                      !- Hour 1
  0,                                      !- Minute 1
  1,                                      !- Value Until Time 1
  24,                                     !- Hour 2
  0,                                      !- Minute 2
  0;                                      !- Value Until Time 2

OS:Schedule:Day,
  {1bc4959c-ef36-4791-828b-6760a7ec90de}, !- Handle
  Medium Office Lighting Winter Design Day Schedule, !- Name
  ,                                       !- Schedule Type Limits Name
  ,                                       !- Interpolate to Timestep
  24,                                     !- Hour 1
  0,                                      !- Minute 1
  0;                                      !- Value Until Time 1

OS:Schedule:Day,
  {54a08b79-c583-4473-a88f-9511c08f5785}, !- Handle
  Medium Office Lighting Winter Design Day Schedule 1, !- Name
  {8667882d-241d-4253-a0cc-6b1f72a136d6}, !- Schedule Type Limits Name
  ,                                       !- Interpolate to Timestep
  24,                                     !- Hour 1
  0,                                      !- Minute 1
  0;                                      !- Value Until Time 1

OS:Schedule:Rule,
  {0946308a-3075-4e57-98f1-669eed16b9b9}, !- Handle
  Medium Office Lighting Schedule Weekdays Rule, !- Name
  {325911ef-5379-40ee-8260-a999a50d856d}, !- Schedule Ruleset Name
  1,                                      !- Rule Order
  {8d8bf0e7-5483-477e-bbb7-8a781eed6d2b}, !- Day Schedule Name
  ,                                       !- Apply Sunday
  Yes,                                    !- Apply Monday
  Yes,                                    !- Apply Tuesday
  Yes,                                    !- Apply Wednesday
  Yes,                                    !- Apply Thursday
  Yes;                                    !- Apply Friday

OS:Schedule:Day,
  {8d8bf0e7-5483-477e-bbb7-8a781eed6d2b}, !- Handle
  Medium Office Lighting Weekdays Schedule, !- Name
  {8667882d-241d-4253-a0cc-6b1f72a136d6}, !- Schedule Type Limits Name
  ,                                       !- Interpolate to Timestep
  5,                                      !- Hour 1
  0,                                      !- Minute 1
  0.05,                                   !- Value Until Time 1
  7,                                      !- Hour 2
  0,                                      !- Minute 2
  0.1,                                    !- Value Until Time 2
  8,                                      !- Hour 3
  0,                                      !- Minute 3
  0.3,                                    !- Value Until Time 3
  17,                                     !- Hour 4
  0,                                      !- Minute 4
  0.9,                                    !- Value Until Time 4
  18,                                     !- Hour 5
  0,                                      !- Minute 5
  0.7,                                    !- Value Until Time 5
  20,                                     !- Hour 6
  0,                                      !- Minute 6
  0.5,                                    !- Value Until Time 6
  22,                                     !- Hour 7
  0,                                      !- Minute 7
  0.3,                                    !- Value Until Time 7
  23,                                     !- Hour 8
  0,                                      !- Minute 8
  0.1,                                    !- Value Until Time 8
  24,                                     !- Hour 9
  0,                                      !- Minute 9
  0.05;                                   !- Value Until Time 9

OS:Schedule:Rule,
  {283f9638-357f-4b10-bdf9-e74ccdc36a49}, !- Handle
  Medium Office Lighting Schedule Saturday Rule, !- Name
  {325911ef-5379-40ee-8260-a999a50d856d}, !- Schedule Ruleset Name
  0,                                      !- Rule Order
  {d79d1036-6653-46f4-ad8b-86efe07bbedb}, !- Day Schedule Name
  ,                                       !- Apply Sunday
  ,                                       !- Apply Monday
  ,                                       !- Apply Tuesday
  ,                                       !- Apply Wednesday
  ,                                       !- Apply Thursday
  ,                                       !- Apply Friday
  Yes;                                    !- Apply Saturday

OS:Schedule:Day,
  {d79d1036-6653-46f4-ad8b-86efe07bbedb}, !- Handle
  Medium Office Lighting Saturday Schedule, !- Name
  {8667882d-241d-4253-a0cc-6b1f72a136d6}, !- Schedule Type Limits Name
  ,                                       !- Interpolate to Timestep
  6,                                      !- Hour 1
  0,                                      !- Minute 1
  0.05,                                   !- Value Until Time 1
  8,                                      !- Hour 2
  0,                                      !- Minute 2
  0.1,                                    !- Value Until Time 2
  14,                                     !- Hour 3
  0,                                      !- Minute 3
  0.5,                                    !- Value Until Time 3
  17,                                     !- Hour 4
  0,                                      !- Minute 4
  0.15,                                   !- Value Until Time 4
  24,                                     !- Hour 5
  0,                                      !- Minute 5
  0.05;                                   !- Value Until Time 5

OS:Schedule:Ruleset,
  {3c7569c7-0b16-4f4e-8525-c250070a163c}, !- Handle
  Medium Office Electric Equipment Schedule, !- Name
  {8667882d-241d-4253-a0cc-6b1f72a136d6}, !- Schedule Type Limits Name
  {714cd1e3-a3ba-4ee5-97a2-9f34b077d577}, !- Default Day Schedule Name
  {b89df5b2-b3c0-4cb4-a37a-ddc89d03cc7f}, !- Summer Design Day Schedule Name
  {eb23318b-0a45-4bf4-9eab-c2a6b7ea83c2}; !- Winter Design Day Schedule Name

OS:Schedule:Day,
  {714cd1e3-a3ba-4ee5-97a2-9f34b077d577}, !- Handle
  Medium Office Electric Equipment All Other Days Schedule, !- Name
  {8667882d-241d-4253-a0cc-6b1f72a136d6}, !- Schedule Type Limits Name
  ,                                       !- Interpolate to Timestep
  24,                                     !- Hour 1
  0,                                      !- Minute 1
  0.3;                                    !- Value Until Time 1

OS:Schedule:Day,
  {3a023339-3058-481d-a2c9-32c3188870bb}, !- Handle
  Medium Office Electric Equipment Summer Design Day Schedule, !- Name
  ,                                       !- Schedule Type Limits Name
  ,                                       !- Interpolate to Timestep
  6,                                      !- Hour 1
  0,                                      !- Minute 1
  1,                                      !- Value Until Time 1
  24,                                     !- Hour 2
  0,                                      !- Minute 2
  0;                                      !- Value Until Time 2

OS:Schedule:Day,
  {b89df5b2-b3c0-4cb4-a37a-ddc89d03cc7f}, !- Handle
  Medium Office Electric Equipment Summer Design Day Schedule 1, !- Name
  {8667882d-241d-4253-a0cc-6b1f72a136d6}, !- Schedule Type Limits Name
  ,                                       !- Interpolate to Timestep
  6,                                      !- Hour 1
  0,                                      !- Minute 1
  1,                                      !- Value Until Time 1
  24,                                     !- Hour 2
  0,                                      !- Minute 2
  0;                                      !- Value Until Time 2

OS:Schedule:Day,
  {389ebe30-4570-4c8a-9964-be4678e0dc16}, !- Handle
  Medium Office Electric Equipment Winter Design Day Schedule, !- Name
  ,                                       !- Schedule Type Limits Name
  ,                                       !- Interpolate to Timestep
  24,                                     !- Hour 1
  0,                                      !- Minute 1
  0;                                      !- Value Until Time 1

OS:Schedule:Day,
  {eb23318b-0a45-4bf4-9eab-c2a6b7ea83c2}, !- Handle
  Medium Office Electric Equipment Winter Design Day Schedule 1, !- Name
  {8667882d-241d-4253-a0cc-6b1f72a136d6}, !- Schedule Type Limits Name
  ,                                       !- Interpolate to Timestep
  24,                                     !- Hour 1
  0,                                      !- Minute 1
  0;                                      !- Value Until Time 1

OS:Schedule:Rule,
  {3a212328-226a-4c38-8fec-c8abb001d9ee}, !- Handle
  Medium Office Electric Equipment Schedule Weekdays Rule, !- Name
  {3c7569c7-0b16-4f4e-8525-c250070a163c}, !- Schedule Ruleset Name
  1,                                      !- Rule Order
  {db7d38dd-f07c-458c-bdd6-ac8bedebea8c}, !- Day Schedule Name
  ,                                       !- Apply Sunday
  Yes,                                    !- Apply Monday
  Yes,                                    !- Apply Tuesday
  Yes,                                    !- Apply Wednesday
  Yes,                                    !- Apply Thursday
  Yes;                                    !- Apply Friday

OS:Schedule:Day,
  {db7d38dd-f07c-458c-bdd6-ac8bedebea8c}, !- Handle
  Medium Office Electric Equipment Weekdays Schedule, !- Name
  {8667882d-241d-4253-a0cc-6b1f72a136d6}, !- Schedule Type Limits Name
  ,                                       !- Interpolate to Timestep
  8,                                      !- Hour 1
  0,                                      !- Minute 1
  0.4,                                    !- Value Until Time 1
  12,                                     !- Hour 2
  0,                                      !- Minute 2
  0.9,                                    !- Value Until Time 2
  13,                                     !- Hour 3
  0,                                      !- Minute 3
  0.8,                                    !- Value Until Time 3
  17,                                     !- Hour 4
  0,                                      !- Minute 4
  0.9,                                    !- Value Until Time 4
  18,                                     !- Hour 5
  0,                                      !- Minute 5
  0.8,                                    !- Value Until Time 5
  20,                                     !- Hour 6