
OS:Version,
  {c2373faf-1549-46d2-aa71-67bae9a07837}, !- Handle
  0.11.5;                                 !- Version Identifier

OS:Schedule:Constant,
  {bff942b9-d813-49f6-8e69-4d5d1f68b48e}, !- Handle
  Always On Discrete,                     !- Name
  {b133e585-c191-40eb-a9df-85020ec025fd}, !- Schedule Type Limits Name
  1;                                      !- Value

OS:ScheduleTypeLimits,
  {b133e585-c191-40eb-a9df-85020ec025fd}, !- Handle
  Always On Discrete Limits,              !- Name
  0,                                      !- Lower Limit Value {BasedOnField A4}
  1,                                      !- Upper Limit Value {BasedOnField A4}
  Discrete,                               !- Numeric Type
  Availability;                           !- Unit Type

OS:ThermalZone,
  {5abb040e-d3ad-437f-9c9a-ef6239a5f135}, !- Handle
  Perimeter_ZN_1 Thermal Zone,            !- Name
  1,                                      !- Multiplier
  ,                                       !- Ceiling Height {m}
  ,                                       !- Volume {m3}
  ,                                       !- Floor Area {m2}
  ,                                       !- Zone Inside Convection Algorithm
  ,                                       !- Zone Outside Convection Algorithm
  ,                                       !- Zone Conditioning Equipment List Name
  {02fe08c6-e49b-4779-8e86-5b2bf52594e6}, !- Zone Air Inlet Port List
  {5f7e047a-537a-494f-a880-885f574fdc0f}, !- Zone Air Exhaust Port List
  {0abe44ed-f480-466e-a035-c9fe5702216f}, !- Zone Air Node Name
  {2a09fc68-f2e3-4f9c-8698-22a183991951}, !- Zone Return Air Node Name
  ,                                       !- Primary Daylighting Control Name
  ,                                       !- Fraction of Zone Controlled by Primary Daylighting Control
  ,                                       !- Secondary Daylighting Control Name
  ,                                       !- Fraction of Zone Controlled by Secondary Daylighting Control
  ,                                       !- Illuminance Map Name
  ,                                       !- Group Rendering Name
  {47894e0e-6f64-4721-bdd6-3ecdf29dd84c}, !- Thermostat Name
  No;                                     !- Use Ideal Air Loads

OS:PortList,
  {02fe08c6-e49b-4779-8e86-5b2bf52594e6}, !- Handle
  Port List 1,                            !- Name
  {ec322bfb-ad95-4253-bbc6-eebecc1c95eb}; !- Port 1

OS:PortList,
  {5f7e047a-537a-494f-a880-885f574fdc0f}, !- Handle
  Port List 5;                            !- Name

OS:ZoneHVAC:EquipmentList,
  {01a7a3f7-75d1-48a5-a07c-a2e87277b53c}, !- Handle
  Zone HVAC Equipment List 1,             !- Name
  {5abb040e-d3ad-437f-9c9a-ef6239a5f135}, !- Thermal Zone
  {d36d7dcf-f39f-43fc-ab23-0e73832b43d3}, !- Zone Equipment 1
  1,                                      !- Zone Equipment Cooling Sequence 1
  1;                                      !- Zone Equipment Heating or No-Load Sequence 1

OS:ThermalZone,
  {99e7190b-10a4-43f8-b5ac-014f0f335012}, !- Handle
  Perimeter_ZN_3 Thermal Zone,            !- Name
  1,                                      !- Multiplier
  ,                                       !- Ceiling Height {m}
  ,                                       !- Volume {m3}
  ,                                       !- Floor Area {m2}
  ,                                       !- Zone Inside Convection Algorithm
  ,                                       !- Zone Outside Convection Algorithm
  ,                                       !- Zone Conditioning Equipment List Name
  {ff198a89-73bb-4936-a52e-8b67c72caa99}, !- Zone Air Inlet Port List
  {98a52b1f-4be0-4d94-9216-a04c1f44c34d}, !- Zone Air Exhaust Port List
  {7cc58510-8c4b-4271-be3a-124dd22a685b}, !- Zone Air Node Name
  {11d4c8db-a7e5-45e2-bfe9-6bec95a57e67}, !- Zone Return Air Node Name
  ,                                       !- Primary Daylighting Control Name
  ,                                       !- Fraction of Zone Controlled by Primary Daylighting Control
  ,                                       !- Secondary Daylighting Control Name
  ,                                       !- Fraction of Zone Controlled by Secondary Daylighting Control
  ,                                       !- Illuminance Map Name
  ,                                       !- Group Rendering Name
  {5b43f124-2b7f-4844-852b-61ae20711d0d}, !- Thermostat Name
  No;                                     !- Use Ideal Air Loads

OS:PortList,
  {ff198a89-73bb-4936-a52e-8b67c72caa99}, !- Handle
  Port List 12,                           !- Name
  {b19caae2-cdf2-4022-9e5e-4a97bf9883ea}; !- Port 1

OS:PortList,
  {98a52b1f-4be0-4d94-9216-a04c1f44c34d}, !- Handle
  Port List 8;                            !- Name

OS:ZoneHVAC:EquipmentList,
  {ee25ef93-7af6-41d8-91fc-787c54eaa215}, !- Handle
  Zone HVAC Equipment List 4,             !- Name
  {99e7190b-10a4-43f8-b5ac-014f0f335012}, !- Thermal Zone
  {d9af2c77-3813-41f5-8bfe-6c78ec4f9af8}, !- Zone Equipment 1
  1,                                      !- Zone Equipment Cooling Sequence 1
  1;                                      !- Zone Equipment Heating or No-Load Sequence 1

OS:ThermalZone,
  {63a01e20-be89-4058-8630-b79f98e933e8}, !- Handle
  Perimeter_ZN_2 Thermal Zone,            !- Name
  1,                                      !- Multiplier
  ,                                       !- Ceiling Height {m}
  ,                                       !- Volume {m3}
  ,                                       !- Floor Area {m2}
  ,                                       !- Zone Inside Convection Algorithm
  ,                                       !- Zone Outside Convection Algorithm
  ,                                       !- Zone Conditioning Equipment List Name
  {6d4b30a3-40d7-4595-ba10-43ba51dfe916}, !- Zone Air Inlet Port List
  {d91ad1f5-d8e7-4e75-92e9-a75dfbf5d6d4}, !- Zone Air Exhaust Port List
  {b5459b8d-f37d-4803-999a-3d7baea78c75}, !- Zone Air Node Name
  {e26c356a-7a4f-4da4-9e00-72ab9717fa82}, !- Zone Return Air Node Name
  ,                                       !- Primary Daylighting Control Name
  ,                                       !- Fraction of Zone Controlled by Primary Daylighting Control
  ,                                       !- Secondary Daylighting Control Name
  ,                                       !- Fraction of Zone Controlled by Secondary Daylighting Control
  ,                                       !- Illuminance Map Name
  ,                                       !- Group Rendering Name
  {789c0365-601e-4049-9b28-bac4b921d760}, !- Thermostat Name
  No;                                     !- Use Ideal Air Loads

OS:PortList,
  {6d4b30a3-40d7-4595-ba10-43ba51dfe916}, !- Handle
  Port List 6,                            !- Name
  {cef8bc8d-692e-4d01-87cd-d2c01e1f5ba7}; !- Port 1

OS:PortList,
  {d91ad1f5-d8e7-4e75-92e9-a75dfbf5d6d4}, !- Handle
  Port List 10;                           !- Name

OS:ZoneHVAC:EquipmentList,
  {c0fc9dd1-0d19-48b7-977e-874aaf1cc3c4}, !- Handle
  Zone HVAC Equipment List 3,             !- Name
  {63a01e20-be89-4058-8630-b79f98e933e8}, !- Thermal Zone
  {8517ba61-352b-4f9e-9527-9be9dfb92ac6}, !- Zone Equipment 1
  1,                                      !- Zone Equipment Cooling Sequence 1
  1;                                      !- Zone Equipment Heating or No-Load Sequence 1

OS:ThermalZone,
  {8f2f67c5-962c-4013-a1aa-41238edb18ab}, !- Handle
  Core_ZN Thermal Zone,                   !- Name
  1,                                      !- Multiplier
  ,                                       !- Ceiling Height {m}
  ,                                       !- Volume {m3}
  ,                                       !- Floor Area {m2}
  ,                                       !- Zone Inside Convection Algorithm
  ,                                       !- Zone Outside Convection Algorithm
  ,                                       !- Zone Conditioning Equipment List Name
  {3ffb3fd3-c1e6-4660-9165-7017fda03369}, !- Zone Air Inlet Port List
  {3be98001-781f-4574-949e-9047949438f0}, !- Zone Air Exhaust Port List
  {bd26ab17-c113-4588-afe7-dda276147ecb}, !- Zone Air Node Name
  {9f2feed3-e376-4958-8b23-72d0f8764b55}, !- Zone Return Air Node Name
  ,                                       !- Primary Daylighting Control Name
  ,                                       !- Fraction of Zone Controlled by Primary Daylighting Control
  ,                                       !- Secondary Daylighting Control Name
  ,                                       !- Fraction of Zone Controlled by Secondary Daylighting Control
  ,                                       !- Illuminance Map Name
  ,                                       !- Group Rendering Name
  {84a11fb7-60c0-4221-99cd-aed68704f9ab}, !- Thermostat Name
  No;                                     !- Use Ideal Air Loads

OS:PortList,
  {3ffb3fd3-c1e6-4660-9165-7017fda03369}, !- Handle
  Port List 4,                            !- Name
  {f5b0dd95-5ba0-4154-930b-673e080ecd2a}; !- Port 1

OS:PortList,
  {3be98001-781f-4574-949e-9047949438f0}, !- Handle
  Port List 3;                            !- Name

OS:ZoneHVAC:EquipmentList,
  {486b9841-d60e-4ff8-b6dd-2e5dd2068bd8}, !- Handle
  Zone HVAC Equipment List 2,             !- Name
  {8f2f67c5-962c-4013-a1aa-41238edb18ab}, !- Thermal Zone
  {5820911d-90d9-4238-a8e6-164b48421e2d}, !- Zone Equipment 1
  1,                                      !- Zone Equipment Cooling Sequence 1
  1;                                      !- Zone Equipment Heating or No-Load Sequence 1

OS:ThermalZone,
  {ccc91c8e-d1ed-4f70-9c3f-3f6e529a7001}, !- Handle
  Perimeter_ZN_4 Thermal Zone,            !- Name
  1,                                      !- Multiplier
  ,                                       !- Ceiling Height {m}
  ,                                       !- Volume {m3}
  ,                                       !- Floor Area {m2}
  ,                                       !- Zone Inside Convection Algorithm
  ,                                       !- Zone Outside Convection Algorithm
  ,                                       !- Zone Conditioning Equipment List Name
  {70034bd9-8b8d-41e4-b8b6-19492d0ed4ba}, !- Zone Air Inlet Port List
  {1325b0b5-c934-47d4-b0d0-2a3aeadfbb0b}, !- Zone Air Exhaust Port List
  {e81a5902-cc44-41f1-88e0-231761069cb2}, !- Zone Air Node Name
  {4c19c3b6-7a77-45a3-8913-161e2a042a6d}, !- Zone Return Air Node Name
  ,                                       !- Primary Daylighting Control Name
  ,                                       !- Fraction of Zone Controlled by Primary Daylighting Control
  ,                                       !- Secondary Daylighting Control Name
  ,                                       !- Fraction of Zone Controlled by Secondary Daylighting Control
  ,                                       !- Illuminance Map Name
  ,                                       !- Group Rendering Name
  {882611ec-afc6-4a1c-81f9-2054ef1fc245}, !- Thermostat Name
  No;                                     !- Use Ideal Air Loads

OS:PortList,
  {70034bd9-8b8d-41e4-b8b6-19492d0ed4ba}, !- Handle
  Port List 7,                            !- Name
  {4537e6e7-e9f0-48a2-9487-77ed29edc5e6}; !- Port 1

OS:PortList,
  {1325b0b5-c934-47d4-b0d0-2a3aeadfbb0b}, !- Handle
  Port List 2;                            !- Name

OS:ZoneHVAC:EquipmentList,
  {fe81f5dc-f5a9-4e30-ac25-0ceb2329867e}, !- Handle
  Zone HVAC Equipment List 6,             !- Name
  {ccc91c8e-d1ed-4f70-9c3f-3f6e529a7001}, !- Thermal Zone
  {a138dc8e-5fbc-43e8-9272-4600d0eb7428}, !- Zone Equipment 1
  1,                                      !- Zone Equipment Cooling Sequence 1
  1;                                      !- Zone Equipment Heating or No-Load Sequence 1

OS:ThermalZone,
  {37e95dc4-2ceb-44c0-bc7a-7fe0cba48413}, !- Handle
  Attic Thermal Zone,                     !- Name
  1,                                      !- Multiplier
  ,                                       !- Ceiling Height {m}
  ,                                       !- Volume {m3}
  ,                                       !- Floor Area {m2}
  ,                                       !- Zone Inside Convection Algorithm
  ,                                       !- Zone Outside Convection Algorithm
  ,                                       !- Zone Conditioning Equipment List Name
  {cc808314-42ba-4727-a498-41a2a687c87d}, !- Zone Air Inlet Port List
  {fe355899-7eb7-47b0-b1d7-857843d519a2}, !- Zone Air Exhaust Port List
  {f39cb510-5266-4605-a01e-14a45c17b070}, !- Zone Air Node Name
  ,                                       !- Zone Return Air Node Name
  ,                                       !- Primary Daylighting Control Name
  ,                                       !- Fraction of Zone Controlled by Primary Daylighting Control
  ,                                       !- Secondary Daylighting Control Name
  ,                                       !- Fraction of Zone Controlled by Secondary Daylighting Control
  ,                                       !- Illuminance Map Name
  ,                                       !- Group Rendering Name
  ,                                       !- Thermostat Name
  No;                                     !- Use Ideal Air Loads

OS:PortList,
  {cc808314-42ba-4727-a498-41a2a687c87d}, !- Handle
  Port List 9,                            !- Name
  ;                                       !- Port 1

OS:PortList,
  {fe355899-7eb7-47b0-b1d7-857843d519a2}, !- Handle
  Port List 11;                           !- Name

OS:ZoneHVAC:EquipmentList,
  {f995d53c-4435-48a2-8b15-fad5e27736b4}, !- Handle
  Zone HVAC Equipment List 5,             !- Name
  {37e95dc4-2ceb-44c0-bc7a-7fe0cba48413}; !- Thermal Zone

OS:Site,
  {7f5b2d78-013c-4cab-bfa6-b6875a7772dc}, ! Handle
  USA CO-BOULDER,                         ! Name
  39.74,                                  ! Latitude {deg}
  -105.18,                                ! Longitude {deg}
  -7,                                     ! Time Zone {hr}
  1829,                                   ! Elevation {m}
  City;                                   ! Terrain

OS:SimulationControl,
  {0ae0e9a6-c961-46df-ba95-0f1b0c64463f}, ! Handle
  Yes,                                    ! Do Zone Sizing Calculation
  Yes,                                    ! Do System Sizing Calculation
  Yes,                                    ! Do Plant Sizing Calculation
  No,                                     ! Run Simulation for Sizing Periods
  Yes,                                    ! Run Simulation for Weather File Run Periods
  0.04,                                   ! Loads Convergence Tolerance Value
  0.2,                                    ! Temperature Convergence Tolerance Value {deltaC}
  FullInteriorAndExterior,                ! Solar Distribution
  25,                                     ! Maximum Number of Warmup Days
  6;                                      ! Minimum Number of Warmup Days

OS:AirLoopHVAC,
  {a34c2647-0efb-4c17-bd60-d76292c24052}, ! Handle
  PSZ-AC:2,                               ! Name
  ,                                       ! Controller List Name
  {0770457c-231d-4c99-9c88-7edee6a5baf5}, ! Availability Manager List Name
  AUTOSIZE,                               ! Design Supply Air Flow Rate {m3/s}
  ,                                       ! Branch List Name
  ,                                       ! Connector List Name
  {eec14894-0fcc-4681-ba00-e6cc65350016}, ! Supply Side Inlet Node Name
  {67e5c971-696d-4b70-813b-7c8af8359b25}, ! Demand Side Outlet Node Name
  {36585ba2-9999-4aff-a49e-f4249248880d}, ! Demand Side Inlet Node Names
  {64a448c5-f9c0-4929-b33d-51027e321b12}; ! Supply Side Outlet Node Names

OS:AvailabilityManagerAssignmentList,
  {0770457c-231d-4c99-9c88-7edee6a5baf5}, !- Handle
  Availability Manager Assignment List 1, !- Name
  {fba5849f-6619-4d0e-a673-0d08275873b6}, !- Availability Manager Name 1
  {6a483cc3-9550-428d-8497-90864dc73522}; !- Availability Manager Name 2

OS:AvailabilityManager:Scheduled,
  {fba5849f-6619-4d0e-a673-0d08275873b6}, !- Handle
  Availability Manager Scheduled 5,       !- Name
  {bff942b9-d813-49f6-8e69-4d5d1f68b48e}; !- Schedule Name

OS:AvailabilityManager:NightCycle,
  {6a483cc3-9550-428d-8497-90864dc73522}, !- Handle
  Availability Manager Night Cycle 4,     !- Name
  ,                                       !- Applicability Schedule
  ,                                       !- Fan Schedule
  ,                                       !- Control Type
  ,                                       !- Thermostat Tolerance {deltaC}
  ;                                       !- Cycling Run Time {s}

OS:Node,
  {fa013aab-aa11-49f6-83f1-42ff5083268d}, ! Handle
  PSZ-AC:2 Supply Equipment Inlet Node,   ! Name
  {eec14894-0fcc-4681-ba00-e6cc65350016}, ! Inlet Port
  {f0fdcea2-4e67-43da-89ca-6355ab88a231}; ! Outlet Port

OS:Node,
  {6d7e0ae3-3882-40bd-9be8-585ca4f46159}, ! Handle
  PSZ-AC:2 Supply Equipment Outlet Node,  ! Name
  {5344cb44-b027-472c-98af-29f8974e097e}, ! Inlet Port
  {64a448c5-f9c0-4929-b33d-51027e321b12}; ! Outlet Port

OS:Connection,
  {eec14894-0fcc-4681-ba00-e6cc65350016}, ! Handle
  {280caead-25e5-4269-9660-d124fc1006b5}, ! Name
  {a34c2647-0efb-4c17-bd60-d76292c24052}, ! Source Object
  7,                                      ! Outlet Port
  {fa013aab-aa11-49f6-83f1-42ff5083268d}, ! Target Object
  2;                                      ! Inlet Port

OS:Connection,
  {64a448c5-f9c0-4929-b33d-51027e321b12}, ! Handle
  {9dca5573-ca84-42b9-92f4-9e52a21baf5f}, ! Name
  {6d7e0ae3-3882-40bd-9be8-585ca4f46159}, ! Source Object
  3,                                      ! Outlet Port
  {a34c2647-0efb-4c17-bd60-d76292c24052}, ! Target Object
  10;                                     ! Inlet Port

OS:Node,
  {fa0d7d86-8554-4671-b6f6-24e3d437eb04}, ! Handle
  PSZ-AC:2 Zone Equipment Inlet Node,     ! Name
  {36585ba2-9999-4aff-a49e-f4249248880d}, ! Inlet Port
  {ebf33e8d-549e-4730-9515-4031b554afb7}; ! Outlet Port

OS:Node,
  {1de13625-c903-4dd4-b3b7-f6c7bd0c9e18}, ! Handle
  PSZ-AC:2 Zone Equipment Outlet Node,    ! Name
  {21745a47-0264-4405-ab7c-abf38377d830}, ! Inlet Port
  {67e5c971-696d-4b70-813b-7c8af8359b25}; ! Outlet Port

OS:Connection,
  {36585ba2-9999-4aff-a49e-f4249248880d}, ! Handle
  {187a81be-4a6e-4cc6-9360-86f98883ae5d}, ! Name
  {a34c2647-0efb-4c17-bd60-d76292c24052}, ! Source Object
  9,                                      ! Outlet Port
  {fa0d7d86-8554-4671-b6f6-24e3d437eb04}, ! Target Object
  2;                                      ! Inlet Port

OS:Connection,
  {67e5c971-696d-4b70-813b-7c8af8359b25}, ! Handle
  {5e59286c-ae02-4c68-b779-5069128eef2f}, ! Name
  {1de13625-c903-4dd4-b3b7-f6c7bd0c9e18}, ! Source Object
  3,                                      ! Outlet Port
  {a34c2647-0efb-4c17-bd60-d76292c24052}, ! Target Object
  8;                                      ! Inlet Port

OS:AirLoopHVAC:ZoneSplitter,
  {7a4da6e8-1ac2-447c-b441-a82ff241cb8a}, ! Handle
  {3196da1b-817d-4a14-bb5e-7a3d778f6157}, ! Name
  {ebf33e8d-549e-4730-9515-4031b554afb7}, ! Inlet Node Name
  {c222e029-c208-444f-91ab-059a2f58433c}; ! Outlet Node Name 1

OS:AirLoopHVAC:ZoneMixer,
  {034ff156-c197-478a-a289-87e67a5ccb5e}, ! Handle
  {0e326e22-8d7f-41fe-b16e-3dd6b3b137dd}, ! Name
  {21745a47-0264-4405-ab7c-abf38377d830}, ! Outlet Node Name
  {c0a979db-f85b-4a94-87c2-b9403d22933a}; ! Inlet Node Name 1

OS:Connection,
  {ebf33e8d-549e-4730-9515-4031b554afb7}, ! Handle
  {9b8ab139-6858-4e33-b7a1-478e541588fd}, ! Name
  {fa0d7d86-8554-4671-b6f6-24e3d437eb04}, ! Source Object
  3,                                      ! Outlet Port
  {7a4da6e8-1ac2-447c-b441-a82ff241cb8a}, ! Target Object
  2;                                      ! Inlet Port

OS:Connection,
  {21745a47-0264-4405-ab7c-abf38377d830}, ! Handle
  {8e2676cb-daf2-4d93-9523-99150a50b9ab}, ! Name
  {034ff156-c197-478a-a289-87e67a5ccb5e}, ! Source Object
  2,                                      ! Outlet Port
  {1de13625-c903-4dd4-b3b7-f6c7bd0c9e18}, ! Target Object
  2;                                      ! Inlet Port

OS:Sizing:System,
  {c87da544-27c6-4651-a1b6-b51525fd31ef}, ! Handle
  {a34c2647-0efb-4c17-bd60-d76292c24052}, ! AirLoop Name
  Sensible,                               ! Type of Load to Size On
  Autosize,                               ! Design Outdoor Air Flow Rate {m3/s}
  1,                                      ! Minimum System Air Flow Ratio
  7,                                      ! Preheat Design Temperature {C}
  0.008,                                  ! Preheat Design Humidity Ratio {kg-H2O/kg-Air}
  12.8,                                   ! Precool Design Temperature {C}
  0.008,                                  ! Precool Design Humidity Ratio {kg-H2O/kg-Air}
  12.8,                                   ! Central Cooling Design Supply Air Temperature {C}
  40,                                     ! Central Heating Design Supply Air Temperature {C}
  NonCoincident,                          ! Sizing Option
  No,                                     ! 100% Outdoor Air in Cooling
  No,                                     ! 100% Outdoor Air in Heating
  0.0085,                                 ! Central Cooling Design Supply Air Humidity Ratio {kg-H2O/kg-Air}
  0.008,                                  ! Central Heating Design Supply Air Humidity Ratio {kg-H2O/kg-Air}
  DesignDay,                              ! Cooling Design Air Flow Method
  0,                                      ! Cooling Design Air Flow Rate {m3/s}
  DesignDay,                              ! Heating Design Air Flow Method
  0,                                      ! Heating Design Air Flow Rate {m3/s}
  ZoneSum;                                ! System Outdoor Air Method

OS:Controller:OutdoorAir,
  {c693bd72-a17c-4d79-b3df-5a3a28f57a0b}, ! Handle
  PSZ-AC:2_OA_Controller,                 ! Name
  ,                                       ! Relief Air Outlet Node Name
  ,                                       ! Return Air Node Name
  ,                                       ! Mixed Air Node Name
  ,                                       ! Actuator Node Name
  Autosize,                               ! Minimum Outdoor Air Flow Rate {m3/s}
  Autosize,                               ! Maximum Outdoor Air Flow Rate {m3/s}
  NoEconomizer,                           ! Economizer Control Type
  ModulateFlow,                           ! Economizer Control Action Type
  -100,                                   ! Economizer Maximum Limit Dry-Bulb Temperature {C}
  64000,                                  ! Economizer Maximum Limit Enthalpy {J/kg}
  ,                                       ! Economizer Maximum Limit Dewpoint Temperature {C}
  ,                                       ! Electronic Enthalpy Limit Curve Name
  -100,                                   ! Economizer Minimum Limit Dry-Bulb Temperature {C}
  NoLockout,                              ! Lockout Type
  FixedMinimum,                           ! Minimum Limit Type
  ,                                       ! Minimum Outdoor Air Schedule Name
  ,                                       ! Minimum Fraction of Outdoor Air Schedule Name
  ,                                       ! Maximum Fraction of Outdoor Air Schedule Name
  {2d662561-89de-48f0-8da7-5202e84fbea6}, ! Mechanical Ventilation Controller Name
  ,                                       ! Time of Day Economizer Control Schedule Name
  No,                                     ! High Humidity Control
  ,                                       ! Humidistat Control Zone Name
  ,                                       ! High Humidity Outdoor Air Flow Ratio
  ,                                       ! Control High Indoor Humidity Based on Outdoor Humidity Ratio
  BypassWhenOAFlowGreaterThanMinimum;     ! Heat Recovery Bypass Control Type

OS:Controller:MechanicalVentilation,
  {2d662561-89de-48f0-8da7-5202e84fbea6}, !- Handle
  Controller Mechanical Ventilation 1,    !- Name
  {bff942b9-d813-49f6-8e69-4d5d1f68b48e}, !- Availability Schedule
  ,                                       !- Demand Controlled Ventilation
  ZoneSum;                                !- System Outdoor Air Method

OS:AirLoopHVAC:OutdoorAirSystem,
  {a14e0caf-234e-44fa-8942-c016f331bbf9}, ! Handle
  PSZ-AC:2_OA,                            ! Name
  {c693bd72-a17c-4d79-b3df-5a3a28f57a0b}, ! Controller Name
  ,                                       ! Outdoor Air Equipment List Name
  ,                                       ! Availability Manager List Name
  {a5b445f2-2f24-40a8-bf44-a42e70dc2427}, ! Mixed Air Node Name
  {21c0aaa4-19d7-4ee6-bfbf-dc870dbe4eec}, ! Outdoor Air Stream Node Name
  {0dfac93c-6e81-45db-9cdf-72efa4d9dddf}, ! Relief Air Stream Node Name
  {f0fdcea2-4e67-43da-89ca-6355ab88a231}; ! Return Air Stream Node Name

OS:Node,
  {6694bcef-006e-428f-afd4-ef4afd89486e}, ! Handle
  PSZ-AC:2_OAInlet Node,                  ! Name
  ,                                       ! Inlet Port
  {21c0aaa4-19d7-4ee6-bfbf-dc870dbe4eec}; ! Outlet Port

OS:Connection,
  {21c0aaa4-19d7-4ee6-bfbf-dc870dbe4eec}, ! Handle
  {196db4c5-3524-4138-b5ba-405ee3e30d12}, ! Name
  {6694bcef-006e-428f-afd4-ef4afd89486e}, ! Source Object
  3,                                      ! Outlet Port
  {a14e0caf-234e-44fa-8942-c016f331bbf9}, ! Target Object
  6;                                      ! Inlet Port

OS:Node,
  {bdb84307-937a-4617-9927-62ee1111c2e3}, ! Handle
  PSZ-AC:2_OARelief Node,                 ! Name
  {0dfac93c-6e81-45db-9cdf-72efa4d9dddf}, ! Inlet Port
  ;                                       ! Outlet Port

OS:Connection,
  {0dfac93c-6e81-45db-9cdf-72efa4d9dddf}, ! Handle
  {f6a00f2b-675f-4040-8618-2d152da68358}, ! Name
  {a14e0caf-234e-44fa-8942-c016f331bbf9}, ! Source Object
  7,                                      ! Outlet Port
  {bdb84307-937a-4617-9927-62ee1111c2e3}, ! Target Object
  2;                                      ! Inlet Port

OS:Connection,
  {f0fdcea2-4e67-43da-89ca-6355ab88a231}, ! Handle
  {e267e1b4-0573-45fc-aa0b-32d277047837}, ! Name
  {fa013aab-aa11-49f6-83f1-42ff5083268d}, ! Source Object
  3,                                      ! Outlet Port
  {a14e0caf-234e-44fa-8942-c016f331bbf9}, ! Target Object
  8;                                      ! Inlet Port

OS:Schedule:Compact,
  {2d52fb50-bddc-4a87-9ee1-4d0e2085b873}, ! Handle
  ALWAYS_ON,                              ! Name
  {08d24eda-f913-45a7-bd3e-18cad9348822}, ! Schedule Type Limits Name
  Through: 12/31,                         ! Field 1
  For: AllDays,                           ! Field 2
  Until: 24:00,                           ! Field 3
  1;                                      ! Field 4

OS:Curve:Biquadratic,
  {9afbd29f-f7a2-40e5-8ce2-e4b30133282f}, ! Handle
  Curve:Biquadratic 1,                    ! Name
  0.9712123,                              ! Coefficient1 Constant
  -0.015275502,                           ! Coefficient2 x
  0.0014434524,                           ! Coefficient3 x**2
  -0.00039321,                            ! Coefficient4 y
  -6.8364e-006,                           ! Coefficient5 y**2
  -0.0002905956,                          ! Coefficient6 x*y
  -100,                                   ! Minimum Value of x {BasedOnField A2}
  100,                                    ! Maximum Value of x {BasedOnField A2}
  -100,                                   ! Minimum Value of y {BasedOnField A3}
  100;                                    ! Maximum Value of y {BasedOnField A3}

OS:Curve:Biquadratic,
  {adadbd25-3032-459d-a0dc-9ec515f2c4c2}, ! Handle
  Curve:Biquadratic 2,                    ! Name
  0.28687133,                             ! Coefficient1 Constant
  0.023902164,                            ! Coefficient2 x
  -0.000810648,                           ! Coefficient3 x**2
  0.013458546,                            ! Coefficient4 y
  0.0003389364,                           ! Coefficient5 y**2
  -0.0004870044,                          ! Coefficient6 x*y
  -100,                                   ! Minimum Value of x {BasedOnField A2}
  100,                                    ! Maximum Value of x {BasedOnField A2}
  -100,                                   ! Minimum Value of y {BasedOnField A3}
  100;                                    ! Maximum Value of y {BasedOnField A3}

OS:Curve:Cubic,
  {cf0b9163-379b-4f7a-b9f2-4f29196eb840}, ! Handle
  Curve:Cubic 1,                          ! Name
  1,                                      ! Coefficient1 Constant
  0,                                      ! Coefficient2 x
  0,                                      ! Coefficient3 x**2
  0,                                      ! Coefficient4 x**3
  -100,                                   ! Minimum Value of x {BasedOnField A2}
  100;                                    ! Maximum Value of x {BasedOnField A2}

OS:Curve:Cubic,
  {b742fab0-f79d-4b20-99af-3fa99e81abfc}, ! Handle
  Curve:Cubic 2,                          ! Name
  1,                                      ! Coefficient1 Constant
  0,                                      ! Coefficient2 x
  0,                                      ! Coefficient3 x**2
  0,                                      ! Coefficient4 x**3
  -100,                                   ! Minimum Value of x {BasedOnField A2}
  100;                                    ! Maximum Value of x {BasedOnField A2}

OS:Curve:Quadratic,
  {8d1341d4-3df3-4d04-89fb-c993078525b7}, ! Handle
  Curve:Quadratic 1,                      ! Name
  0.90949556,                             ! Coefficient1 Constant
  0.09864773,                             ! Coefficient2 x
  -0.00819488,                            ! Coefficient3 x**2
  0,                                      ! Minimum Value of x {BasedOnField A2}
  1,                                      ! Maximum Value of x {BasedOnField A2}
  0.7,                                    ! Minimum Curve Output {BasedOnField A3}