
OS:Version,
  {6355fac6-f177-4e66-b3c6-157ca94b9fae}, !- Handle
  1.1.3;                                  !- Version Identifier

OS:SimulationControl,
  {41f65c43-2dc9-4d82-a6e4-a562bae08803}, !- Handle
  Yes,                                    !- Do Zone Sizing Calculation
  Yes,                                    !- Do System Sizing Calculation
  ,                                       !- Do Plant Sizing Calculation
  Yes,                                    !- Run Simulation for Sizing Periods
  Yes;                                    !- Run Simulation for Weather File Run Periods

OS:Timestep,
  {eb4c2965-98e5-4997-8a4e-8c4f15debb16}, !- Handle
  6;                                      !- Number of Timesteps per Hour

OS:SurfaceConvectionAlgorithm:Inside,
  {81e0d50e-12a1-42bd-977d-f7c5a2f8db48}, !- Handle
  TARP;                                   !- Algorithm

OS:SurfaceConvectionAlgorithm:Outside,
  {4cd5774b-32a2-4735-bc88-a9704e322959}, !- Handle
  DOE-2;                                  !- Algorithm

OS:HeatBalanceAlgorithm,
  {fb07df21-178f-40a0-868e-360603ea5cfc}, !- Handle
  ConductionTransferFunction,             !- Algorithm
  200;                                    !- Surface Temperature Upper Limit {F}

OS:ZoneAirHeatBalanceAlgorithm,
  {82730f22-7533-4ae2-85c6-69dbcc9f2cda}, !- Handle
  AnalyticalSolution;                     !- Algorithm

OS:ConvergenceLimits,
  {17bc7ac9-f4b7-4401-b4e6-9cdcd6f62f24}; !- Handle

OS:ShadowCalculation,
  {2c59bec7-e7be-489b-8d3d-042e6bf6bda3}, !- Handle
  7,                                      !- Calculation Frequency
  15000;                                  !- Maximum Figures in Shadow Overlap Calculations

OS:Site,
  {5c1f9d16-87a5-488e-aa99-a6dd668a2146}, !- Handle
  Site 1,                                 !- Name
  39.74,                                  !- Latitude {deg}
  -105.18,                                !- Longitude {deg}
  -7,                                     !- Time Zone {hr}
  1829,                                   !- Elevation {m}
  ;                                       !- Terrain

OS:Site:GroundTemperature:BuildingSurface,
  {2d661510-368a-464f-97bd-5b2b69e35b08}, !- Handle
  19.527,                                 !- January Ground Temperature {C}
  19.502,                                 !- February Ground Temperature {C}
  19.536,                                 !- March Ground Temperature {C}
  19.598,                                 !- April Ground Temperature {C}
  20.002,                                 !- May Ground Temperature {C}
  21.64,                                  !- June Ground Temperature {C}
  22.225,                                 !- July Ground Temperature {C}
  22.375,                                 !- August Ground Temperature {C}
  21.449,                                 !- September Ground Temperature {C}
  20.121,                                 !- October Ground Temperature {C}
  19.802,                                 !- November Ground Temperature {C}
  19.633;                                 !- December Ground Temperature {C}

OS:Site:WaterMainsTemperature,
  {b1134434-51a2-4c57-a796-ee6a763117e6}, !- Handle
  Correlation,                            !- Calculation Method
  ,                                       !- Temperature Schedule Name
  9.69,                                   !- Annual Average Outdoor Air Temperature {C}
  28.1;                                   !- Maximum Difference In Monthly Average Outdoor Air Temperatures {deltaC}

OS:SizingPeriod:DesignDay,
  {93dffeb2-8b85-49e9-8487-9710c53e82fe}, !- Handle
  Sizing Period Design Day 1,             !- Name
  -20.6,                                  !- Maximum Dry-Bulb Temperature {C}
  0,                                      !- Daily Dry-Bulb Temperature Range {deltaC}
  -20.6,                                  !- Humidity Indicating Conditions at Maximum Dry-Bulb {BasedOnField A3}
  99063,                                  !- Barometric Pressure {Pa}
  4.9,                                    !- Wind Speed {m/s}
  270,                                    !- Wind Direction {deg}
  0,                                      !- Sky Clearness
  0,                                      !- Rain Indicator
  0,                                      !- Snow Indicator
  21,                                     !- Day of Month
  1,                                      !- Month
  WinterDesignDay,                        !- Day Type
  0,                                      !- Daylight Saving Time Indicator
  WetBulb,                                !- Humidity Indicating Type
  ,                                       !- Humidity Indicating Day Schedule Name
  DefaultMultipliers,                     !- Dry-Bulb Temperature Range Modifier Type
  ,                                       !- Dry-Bulb Temperature Range Modifier Schedule Name
  AshraeClearSky;                         !- Solar Model Indicator

OS:SizingPeriod:DesignDay,
  {ab722a10-2e37-4ef0-983a-14f23e04319c}, !- Handle
  Sizing Period Design Day 2,             !- Name
  33.2,                                   !- Maximum Dry-Bulb Temperature {C}
  10.7,                                   !- Daily Dry-Bulb Temperature Range {deltaC}
  23.8,                                   !- Humidity Indicating Conditions at Maximum Dry-Bulb {BasedOnField A3}
  99063,                                  !- Barometric Pressure {Pa}
  5.3,                                    !- Wind Speed {m/s}
  230,                                    !- Wind Direction {deg}
  1,                                      !- Sky Clearness
  0,                                      !- Rain Indicator
  0,                                      !- Snow Indicator
  21,                                     !- Day of Month
  7,                                      !- Month
  SummerDesignDay,                        !- Day Type
  0,                                      !- Daylight Saving Time Indicator
  WetBulb,                                !- Humidity Indicating Type
  ,                                       !- Humidity Indicating Day Schedule Name
  DefaultMultipliers,                     !- Dry-Bulb Temperature Range Modifier Type
  ,                                       !- Dry-Bulb Temperature Range Modifier Schedule Name
  AshraeClearSky;                         !- Solar Model Indicator

OS:ScheduleTypeLimits,
  {5c6ddcc6-ada7-47e2-bf93-0c9e8ff94915}, !- Handle
  Temperature,                            !- Name
  -60,                                    !- Lower Limit Value {BasedOnField A4}
  200,                                    !- Upper Limit Value {BasedOnField A4}
  CONTINUOUS,                             !- Numeric Type
  Temperature;                            !- Unit Type

OS:DefaultScheduleSet,
  {530f9623-af4a-491d-9109-39cfa4e2ff70}, !- Handle
  Default Schedules,                      !- Name
  ,                                       !- Hours of Operation Schedule Name
  {35d41c23-6394-45d7-b106-c7f7e4e44690}, !- Number of People Schedule Name
  {2bb42ccb-e34b-4324-8f09-5156c3fbc2e9}, !- People Activity Level Schedule Name
  {1b3e2a57-5b2d-4679-b7f3-70bb7ef55c9d}, !- Lighting Schedule Name
  {5bbe0d01-a739-4142-9e8d-e9afcebe2cf0}, !- Electric Equipment Schedule Name
  {17bce6fe-ee3a-46a7-b1f4-2779b03f2c1b}, !- Gas Equipment Schedule Name
  {fdc257e0-8d8f-4817-b643-d7bd7f907b1c}, !- Hot Water Equipment Schedule Name
  {0817a303-def9-43ca-87bc-67ba69219932}, !- Infiltration Schedule Name
  ,                                       !- Steam Equipment Schedule Name
  ;                                       !- Other Equipment Schedule Name

OS:Schedule:Ruleset,
  {35d41c23-6394-45d7-b106-c7f7e4e44690}, !- Handle
  Medium Office Number of People Schedule, !- Name
  {5fd8c602-e708-4659-b6b9-f4780954b948}, !- Schedule Type Limits Name
  {8c58dfc9-2203-4e39-b1d1-cddb1aec4625}, !- Default Day Schedule Name
  {2ad4872c-04f0-4fb1-bd5a-e6c06804b414}; !- Summer Design Day Schedule Name

OS:Schedule:Day,
  {8c58dfc9-2203-4e39-b1d1-cddb1aec4625}, !- Handle
  Medium Office Number of People All Other Days Schedule, !- Name
  {5fd8c602-e708-4659-b6b9-f4780954b948}, !- Schedule Type Limits Name
  ,                                       !- Interpolate to Timestep
  24,                                     !- Hour 1
  0,                                      !- Minute 1
  0;                                      !- Value Until Time 1

OS:Schedule:Day,
  {d7dc2489-089a-43f2-bce6-91912fc8bf31}, !- Handle
  Medium Office Number of People Summer Design Day Schedule, !- Name
  ,                                       !- Schedule Type Limits Name
  ,                                       !- Interpolate to Timestep
  6,                                      !- Hour 1
  0,                                      !- Minute 1
  0,                                      !- Value Until Time 1
  22,                                     !- Hour 2
  0,                                      !- Minute 2
  1,                                      !- Value Until Time 2
  24,                                     !- Hour 3
  0,                                      !- Minute 3
  0.05;                                   !- Value Until Time 3

OS:Schedule:Day,
  {2ad4872c-04f0-4fb1-bd5a-e6c06804b414}, !- Handle
  Medium Office Number of People Summer Design Day Schedule 1, !- Name
  {5fd8c602-e708-4659-b6b9-f4780954b948}, !- Schedule Type Limits Name
  ,                                       !- Interpolate to Timestep
  6,                                      !- Hour 1
  0,                                      !- Minute 1
  0,                                      !- Value Until Time 1
  22,                                     !- Hour 2
  0,                                      !- Minute 2
  1,                                      !- Value Until Time 2
  24,                                     !- Hour 3
  0,                                      !- Minute 3
  0.05;                                   !- Value Until Time 3

OS:Schedule:Rule,
  {84d67a93-4f94-4b9c-97e8-7256e6a4a525}, !- Handle
  Medium Office Number of People Schedule Weekdays Rule, !- Name
  {35d41c23-6394-45d7-b106-c7f7e4e44690}, !- Schedule Ruleset Name
  1,                                      !- Rule Order
  {d1e3b54e-956f-4cf9-ad46-6b016df057b5}, !- Day Schedule Name
  ,                                       !- Apply Sunday
  Yes,                                    !- Apply Monday
  Yes,                                    !- Apply Tuesday
  Yes,                                    !- Apply Wednesday
  Yes,                                    !- Apply Thursday
  Yes;                                    !- Apply Friday

OS:Schedule:Day,
  {d1e3b54e-956f-4cf9-ad46-6b016df057b5}, !- Handle
  Medium Office Number of People Weekdays Schedule, !- Name
  {5fd8c602-e708-4659-b6b9-f4780954b948}, !- Schedule Type Limits Name
  ,                                       !- Interpolate to Timestep
  6,                                      !- Hour 1
  0,                                      !- Minute 1
  0,                                      !- Value Until Time 1
  7,                                      !- Hour 2
  0,                                      !- Minute 2
  0.1,                                    !- Value Until Time 2
  8,                                      !- Hour 3
  0,                                      !- Minute 3
  0.2,                                    !- Value Until Time 3
  12,                                     !- Hour 4
  0,                                      !- Minute 4
  0.95,                                   !- Value Until Time 4
  13,                                     !- Hour 5
  0,                                      !- Minute 5
  0.5,                                    !- Value Until Time 5
  17,                                     !- Hour 6
  0,                                      !- Minute 6
  0.95,                                   !- Value Until Time 6
  18,                                     !- Hour 7
  0,                                      !- Minute 7
  0.7,                                    !- Value Until Time 7
  20,                                     !- Hour 8
  0,                                      !- Minute 8
  0.4,                                    !- Value Until Time 8
  22,                                     !- Hour 9
  0,                                      !- Minute 9
  0.1,                                    !- Value Until Time 9
  24,                                     !- Hour 10
  0,                                      !- Minute 10
  0.05;                                   !- Value Until Time 10

OS:Schedule:Rule,
  {38230b6f-22e1-42c1-b909-190a9e11ff3d}, !- Handle
  Medium Office Number of People Schedule Saturday Rule, !- Name
  {35d41c23-6394-45d7-b106-c7f7e4e44690}, !- Schedule Ruleset Name
  0,                                      !- Rule Order
  {22292183-b2fd-42ce-ae32-0c4bedefce79}, !- Day Schedule Name
  ,                                       !- Apply Sunday
  ,                                       !- Apply Monday
  ,                                       !- Apply Tuesday
  ,                                       !- Apply Wednesday
  ,                                       !- Apply Thursday
  ,                                       !- Apply Friday
  Yes;                                    !- Apply Saturday

OS:Schedule:Day,
  {22292183-b2fd-42ce-ae32-0c4bedefce79}, !- Handle
  Medium Office Number of People Saturday Schedule, !- Name
  {5fd8c602-e708-4659-b6b9-f4780954b948}, !- Schedule Type Limits Name
  ,                                       !- Interpolate to Timestep
  6,                                      !- Hour 1
  0,                                      !- Minute 1
  0,                                      !- Value Until Time 1
  8,                                      !- Hour 2
  0,                                      !- Minute 2
  0.1,                                    !- Value Until Time 2
  14,                                     !- Hour 3
  0,                                      !- Minute 3
  0.5,                                    !- Value Until Time 3
  17,                                     !- Hour 4
  0,                                      !- Minute 4
  0.1,                                    !- Value Until Time 4
  24,                                     !- Hour 5
  0,                                      !- Minute 5
  0;                                      !- Value Until Time 5

OS:ScheduleTypeLimits,
  {5fd8c602-e708-4659-b6b9-f4780954b948}, !- Handle
  Fractional,                             !- Name
  0,                                      !- Lower Limit Value {BasedOnField A4}
  1,                                      !- Upper Limit Value {BasedOnField A4}
  Continuous;                             !- Numeric Type

OS:Schedule:Ruleset,
  {2bb42ccb-e34b-4324-8f09-5156c3fbc2e9}, !- Handle
  Medium Office People Activity Level Schedule, !- Name
  {08da3382-abbe-41ff-a4b8-b8c1ccc07f52}, !- Schedule Type Limits Name
  {be2217e5-f9a6-4145-82e4-fe6dea134fdf}; !- Default Day Schedule Name

OS:Schedule:Day,
  {be2217e5-f9a6-4145-82e4-fe6dea134fdf}, !- Handle
  Medium Office People Activity Level All Days Schedule, !- Name
  {08da3382-abbe-41ff-a4b8-b8c1ccc07f52}, !- Schedule Type Limits Name
  ,                                       !- Interpolate to Timestep
  24,                                     !- Hour 1
  0,                                      !- Minute 1
  120;                                    !- Value Until Time 1

OS:ScheduleTypeLimits,
  {08da3382-abbe-41ff-a4b8-b8c1ccc07f52}, !- Handle
  ActivityLevel,                          !- Name
  0,                                      !- Lower Limit Value {BasedOnField A4}
  ,                                       !- Upper Limit Value {BasedOnField A4}
  Continuous,                             !- Numeric Type
  ActivityLevel;                          !- Unit Type

OS:Schedule:Ruleset,
  {1b3e2a57-5b2d-4679-b7f3-70bb7ef55c9d}, !- Handle
  Medium Office Lighting Schedule,        !- Name
  {5fd8c602-e708-4659-b6b9-f4780954b948}, !- Schedule Type Limits Name
  {52dc26b0-ebb2-41a7-be32-1329122c80d2}, !- Default Day Schedule Name
  {735bcaaa-90b4-4638-9810-1140c5040126}, !- Summer Design Day Schedule Name
  {2e222c53-7abb-4f2a-b857-579df1c90494}; !- Winter Design Day Schedule Name

OS:Schedule:Day,
  {52dc26b0-ebb2-41a7-be32-1329122c80d2}, !- Handle
  Medium Office Lighting All Other Days Schedule, !- Name
  {5fd8c602-e708-4659-b6b9-f4780954b948}, !- Schedule Type Limits Name
  ,                                       !- Interpolate to Timestep
  24,                                     !- Hour 1
  0,                                      !- Minute 1
  0.05;                                   !- Value Until Time 1

OS:Schedule:Day,
  {2ec688b9-ece2-477b-8517-990049371503}, !- Handle
  Medium Office Lighting Summer Design Day Schedule, !- Name
  ,                                       !- Schedule Type Limits Name
  ,                                       !- Interpolate to Timestep
  6,                                      !- Hour 1
  0,                                      !- Minute 1
  1,                                      !- Value Until Time 1
  24,                                     !- Hour 2
  0,                                      !- Minute 2
  0;                                      !- Value Until Time 2

OS:Schedule:Day,
  {735bcaaa-90b4-4638-9810-1140c5040126}, !- Handle
  Medium Office Lighting Summer Design Day Schedule 1, !- Name
  {5fd8c602-e708-4659-b6b9-f4780954b948}, !- Schedule Type Limits Name
  ,                                       !- Interpolate to Timestep
  6,                                      !- Hour 1
  0,                                      !- Minute 1
  1,                                      !- Value Until Time 1
  24,                                     !- Hour 2
  0,                                      !- Minute 2
  0;                                      !- Value Until Time 2

OS:Schedule:Day,
  {7694d260-3e08-4966-bdaf-fca94e097e46}, !- Handle
  Medium Office Lighting Winter Design Day Schedule, !- Name
  ,                                       !- Schedule Type Limits Name
  ,                                       !- Interpolate to Timestep
  24,                                     !- Hour 1
  0,                                      !- Minute 1
  0;                                      !- Value Until Time 1

OS:Schedule:Day,
  {2e222c53-7abb-4f2a-b857-579df1c90494}, !- Handle
  Medium Office Lighting Winter Design Day Schedule 1, !- Name
  {5fd8c602-e708-4659-b6b9-f4780954b948}, !- Schedule Type Limits Name
  ,                                       !- Interpolate to Timestep
  24,                                     !- Hour 1
  0,                                      !- Minute 1
  0;                                      !- Value Until Time 1

OS:Schedule:Rule,
  {8ee9ca74-9a1a-44fe-ba78-5daad1484425}, !- Handle
  Medium Office Lighting Schedule Weekdays Rule, !- Name
  {1b3e2a57-5b2d-4679-b7f3-70bb7ef55c9d}, !- Schedule Ruleset Name
  1,                                      !- Rule Order
  {b0f474ad-7ea5-41d4-a944-4ad9ad64068b}, !- Day Schedule Name
  ,                                       !- Apply Sunday
  Yes,                                    !- Apply Monday
  Yes,                                    !- Apply Tuesday
  Yes,                                    !- Apply Wednesday
  Yes,                                    !- Apply Thursday
  Yes;                                    !- Apply Friday

OS:Schedule:Day,
  {b0f474ad-7ea5-41d4-a944-4ad9ad64068b}, !- Handle
  Medium Office Lighting Weekdays Schedule, !- Name
  {5fd8c602-e708-4659-b6b9-f4780954b948}, !- Schedule Type Limits Name
  ,                                       !- Interpolate to Timestep
  5,                                      !- Hour 1
  0,                                      !- Minute 1
  0.05,                                   !- Value Until Time 1
  7,                                      !- Hour 2
  0,                                      !- Minute 2
  0.1,                                    !- Value Until Time 2
  8,                                      !- Hour 3
  0,                                      !- Minute 3
  0.3,                                    !- Value Until Time 3
  17,                                     !- Hour 4
  0,                                      !- Minute 4
  0.9,                                    !- Value Until Time 4
  18,                                     !- Hour 5
  0,                                      !- Minute 5
  0.7,                                    !- Value Until Time 5
  20,                                     !- Hour 6
  0,                                      !- Minute 6
  0.5,                                    !- Value Until Time 6
  22,                                     !- Hour 7
  0,                                      !- Minute 7
  0.3,                                    !- Value Until Time 7
  23,                                     !- Hour 8
  0,                                      !- Minute 8
  0.1,                                    !- Value Until Time 8
  24,                                     !- Hour 9
  0,                                      !- Minute 9
  0.05;                                   !- Value Until Time 9

OS:Schedule:Rule,
  {4db8ca8f-75fd-4884-930b-df9f36c68d3d}, !- Handle
  Medium Office Lighting Schedule Saturday Rule, !- Name
  {1b3e2a57-5b2d-4679-b7f3-70bb7ef55c9d}, !- Schedule Ruleset Name
  0,                                      !- Rule Order
  {a74bb354-c78f-4c0f-a8d3-f014b72f5a52}, !- Day Schedule Name
  ,                                       !- Apply Sunday
  ,                                       !- Apply Monday
  ,                                       !- Apply Tuesday
  ,                                       !- Apply Wednesday
  ,                                       !- Apply Thursday
  ,                                       !- Apply Friday
  Yes;                                    !- Apply Saturday

OS:Schedule:Day,
  {a74bb354-c78f-4c0f-a8d3-f014b72f5a52}, !- Handle
  Medium Office Lighting Saturday Schedule, !- Name
  {5fd8c602-e708-4659-b6b9-f4780954b948}, !- Schedule Type Limits Name
  ,                                       !- Interpolate to Timestep
  6,                                      !- Hour 1
  0,                                      !- Minute 1
  0.05,                                   !- Value Until Time 1
  8,                                      !- Hour 2
  0,                                      !- Minute 2
  0.1,                                    !- Value Until Time 2
  14,                                     !- Hour 3
  0,                                      !- Minute 3
  0.5,                                    !- Value Until Time 3
  17,                                     !- Hour 4
  0,                                      !- Minute 4
  0.15,                                   !- Value Until Time 4
  24,                                     !- Hour 5
  0,                                      !- Minute 5
  0.05;                                   !- Value Until Time 5

OS:Schedule:Ruleset,
  {5bbe0d01-a739-4142-9e8d-e9afcebe2cf0}, !- Handle
  Medium Office Electric Equipment Schedule, !- Name
  {5fd8c602-e708-4659-b6b9-f4780954b948}, !- Schedule Type Limits Name
  {60425952-2855-41ce-89ae-fd00b5e20368}, !- Default Day Schedule Name
  {cadacfcd-bb65-41e4-8c6f-40516a3ead6d}, !- Summer Design Day Schedule Name
  {f6bdaa84-8b3e-4e2d-9909-edb8b75b9ac1}; !- Winter Design Day Schedule Name

OS:Schedule:Day,
  {60425952-2855-41ce-89ae-fd00b5e20368}, !- Handle
  Medium Office Electric Equipment All Other Days Schedule, !- Name
  {5fd8c602-e708-4659-b6b9-f4780954b948}, !- Schedule Type Limits Name
  ,                                       !- Interpolate to Timestep
  24,                                     !- Hour 1
  0,                                      !- Minute 1
  0.3;                                    !- Value Until Time 1

OS:Schedule:Day,
  {517cee82-af8f-4bc8-b8c0-6aafaa719955}, !- Handle
  Medium Office Electric Equipment Summer Design Day Schedule, !- Name
  ,                                       !- Schedule Type Limits Name
  ,                                       !- Interpolate to Timestep
  6,                                      !- Hour 1
  0,                                      !- Minute 1
  1,                                      !- Value Until Time 1
  24,                                     !- Hour 2
  0,                                      !- Minute 2
  0;                                      !- Value Until Time 2

OS:Schedule:Day,
  {cadacfcd-bb65-41e4-8c6f-40516a3ead6d}, !- Handle
  Medium Office Electric Equipment Summer Design Day Schedule 1, !- Name
  {5fd8c602-e708-4659-b6b9-f4780954b948}, !- Schedule Type Limits Name
  ,                                       !- Interpolate to Timestep
  6,                                      !- Hour 1
  0,                                      !- Minute 1
  1,                                      !- Value Until Time 1
  24,                                     !- Hour 2
  0,                                      !- Minute 2
  0;                                      !- Value Until Time 2

OS:Schedule:Day,
  {b6d14b80-ba6e-4844-b274-57f6a8068d6d}, !- Handle
  Medium Office Electric Equipment Winter Design Day Schedule, !- Name
  ,                                       !- Schedule Type Limits Name
  ,                                       !- Interpolate to Timestep
  24,                                     !- Hour 1
  0,                                      !- Minute 1
  0;                                      !- Value Until Time 1

OS:Schedule:Day,
  {f6bdaa84-8b3e-4e2d-9909-edb8b75b9ac1}, !- Handle
  Medium Office Electric Equipment Winter Design Day Schedule 1, !- Name
  {5fd8c602-e708-4659-b6b9-f4780954b948}, !- Schedule Type Limits Name
  ,                                       !- Interpolate to Timestep
  24,                                     !- Hour 1
  0,                                      !- Minute 1
  0;                                      !- Value Until Time 1

OS:Schedule:Rule,
  {fc3c0917-2cfc-49b2-9500-534807f71b81}, !- Handle
  Medium Office Electric Equipment Schedule Weekdays Rule, !- Name
  {5bbe0d01-a739-4142-9e8d-e9afcebe2cf0}, !- Schedule Ruleset Name
  1,                                      !- Rule Order
  {f68a15c8-a377-48d7-b8fe-d903355cf2d7}, !- Day Schedule Name
  ,                                       !- Apply Sunday
  Yes,                                    !- Apply Monday
  Yes,                                    !- Apply Tuesday
  Yes,                                    !- Apply Wednesday
  Yes,                                    !- Apply Thursday
  Yes;                                    !- Apply Friday

OS:Schedule:Day,
  {f68a15c8-a377-48d7-b8fe-d903355cf2d7}, !- Handle
  Medium Office Electric Equipment Weekdays Schedule, !- Name
  {5fd8c602-e708-4659-b6b9-f4780954b948}, !- Schedule Type Limits Name
  ,                                       !- Interpolate to Timestep
  8,                                      !- Hour 1
  0,                                      !- Minute 1
  0.4,                                    !- Value Until Time 1
  12,                                     !- Hour 2
  0,                                      !- Minute 2
  0.9,                                    !- Value Until Time 2
  13,                                     !- Hour 3
  0,                                      !- Minute 3
  0.8,                                    !- Value Until Time 3
  17,                                     !- Hour 4
  0,                                      !- Minute 4
  0.9,                                    !- Value Until Time 4
  18,                                     !- Hour 5
  0,                                      !- Minute 5
  0.8,                                    !- Value Until Time 5
  20,                                     !- Hour 6
  0,                                      !- Minute 6
  0.6,                                    !- Value Until Time 6
  22,                                     !- Hour 7
  0,                                      !- Minute 7
  0.5,                                    !- Value Until Time 7
  24,                                     !- Hour 8
  0,                                      !- Minute 8
  0.4;                                    !- Value Until Time 8

OS:Schedule:Rule,
  {b1750ba2-6a17-4cdc-bcaa-cd99babdec60}, !- Handle
  Medium Office Electric Equipment Schedule Saturday Rule, !- Name
  {5bbe0d01-a739-4142-9e8d-e9afcebe2cf0}, !- Schedule Ruleset Name
  0,                                      !- Rule Order
  {bc0c90c8-a38f-45cd-bd98-b13da679e5e0}, !- Day Schedule Name
  ,                                       !- Apply Sunday
  ,                                       !- Apply Monday
  ,                                       !- Apply Tuesday
  ,                                       !- Apply Wednesday
  ,                                       !- Apply Thursday
  ,                                       !- Apply Friday
  Yes;                                    !- Apply Saturday

OS:Schedule:Day,
  {bc0c90c8-a38f-45cd-bd98-b13da679e5e0}, !- Handle
  Medium Office Electric Equipment Saturday Schedule, !- Name
  {5fd8c602-e708-4659-b6b9-f4780954b948}, !- Schedule Type Limits Name
  ,                                       !- Interpolate to Timestep
  6,                                      !- Hour 1
  0,                                      !- Minute 1
  0.3,                                    !- Value Until Time 1
  8,                                      !- Hour 2
  0,                                      !- Minute 2
  0.4,                                    !- Value Until Time 2
  14,                                     !- Hour 3