
OS:Version,
  {5f12bf8c-bfd7-44f7-9554-caf78df38a12}, !- Handle
  1.4.2;                                  !- Version Identifier

OS:SimulationControl,
  {8133064f-a32c-4b4a-b0de-fec86a84338e}, !- Handle
  Yes,                                    !- Do Zone Sizing Calculation
  Yes,                                    !- Do System Sizing Calculation
  ,                                       !- Do Plant Sizing Calculation
  No,                                     !- Run Simulation for Sizing Periods
  Yes;                                    !- Run Simulation for Weather File Run Periods

OS:Timestep,
  {ef0c5ca1-2956-45b9-a507-91e56d7c8a23}, !- Handle
  6;                                      !- Number of Timesteps per Hour

OS:RunPeriod,
  {09b5202f-6f9b-47b3-a37a-a078848bea79}, !- Handle
  Run Period 1,                           !- Name
  1,                                      !- Begin Month
  1,                                      !- Begin Day of Month
  12,                                     !- End Month
  31,                                     !- End Day of Month
  No,                                     !- Use Weather File Holidays and Special Days
  No,                                     !- Use Weather File Daylight Saving Period
  No,                                     !- Apply Weekend Holiday Rule
  Yes,                                    !- Use Weather File Rain Indicators
  Yes,                                    !- Use Weather File Snow Indicators
  1;                                      !- Number of Times Runperiod to be Repeated

OS:SurfaceConvectionAlgorithm:Inside,
  {a72c32f9-4ec5-4542-8855-fb5b3be8a5cd}, !- Handle
  TARP;                                   !- Algorithm

OS:SurfaceConvectionAlgorithm:Outside,
  {0c80a36d-9b58-4c5f-96fe-6e6c8aabc2ce}, !- Handle
  DOE-2;                                  !- Algorithm

OS:HeatBalanceAlgorithm,
  {e627d9de-060b-4eff-a388-793ae73cae88}, !- Handle
  ConductionTransferFunction,             !- Algorithm
  200;                                    !- Surface Temperature Upper Limit {F}

OS:ZoneAirHeatBalanceAlgorithm,
  {8430bb97-c6fd-4101-8c4a-8f4fc6dfeae1}, !- Handle
  AnalyticalSolution;                     !- Algorithm

OS:ConvergenceLimits,
  {10ed6510-4ee1-490b-ae64-6c7e9338b973}; !- Handle

OS:ShadowCalculation,
  {c119a928-186e-4243-ac56-2c972f85c148}, !- Handle
  7,                                      !- Calculation Frequency
  15000;                                  !- Maximum Figures in Shadow Overlap Calculations

OS:Site,
  {3515485e-360e-470e-9a25-8e4370e83c17}, !- Handle
  Site 1,                                 !- Name
  41.77,                                  !- Latitude {deg}
  -87.75,                                 !- Longitude {deg}
  -6,                                     !- Time Zone {hr}
  190,                                    !- Elevation {m}
  ;                                       !- Terrain

OS:Site:GroundTemperature:BuildingSurface,
  {a92de7d9-ab67-4362-a87d-4219e16b98a5}, !- Handle
  19.527,                                 !- January Ground Temperature {C}
  19.502,                                 !- February Ground Temperature {C}
  19.536,                                 !- March Ground Temperature {C}
  19.598,                                 !- April Ground Temperature {C}
  20.002,                                 !- May Ground Temperature {C}
  21.64,                                  !- June Ground Temperature {C}
  22.225,                                 !- July Ground Temperature {C}
  22.375,                                 !- August Ground Temperature {C}
  21.449,                                 !- September Ground Temperature {C}
  20.121,                                 !- October Ground Temperature {C}
  19.802,                                 !- November Ground Temperature {C}
  19.633;                                 !- December Ground Temperature {C}

OS:Site:WaterMainsTemperature,
  {19fb515f-639c-4c15-8d9a-22a6e68d658a}, !- Handle
  Correlation,                            !- Calculation Method
  ,                                       !- Temperature Schedule Name
  9.69,                                   !- Annual Average Outdoor Air Temperature {C}
  28.1;                                   !- Maximum Difference In Monthly Average Outdoor Air Temperatures {deltaC}

OS:SizingPeriod:DesignDay,
  {96521063-b8fd-4bbf-aa56-935850955039}, !- Handle
  Sizing Period Design Day 1,             !- Name
  -20.6,                                  !- Maximum Dry-Bulb Temperature {C}
  0,                                      !- Daily Dry-Bulb Temperature Range {deltaC}
  -20.6,                                  !- Humidity Indicating Conditions at Maximum Dry-Bulb {BasedOnField A3}
  99063,                                  !- Barometric Pressure {Pa}
  4.9,                                    !- Wind Speed {m/s}
  270,                                    !- Wind Direction {deg}
  0,                                      !- Sky Clearness
  0,                                      !- Rain Indicator
  0,                                      !- Snow Indicator
  21,                                     !- Day of Month
  1,                                      !- Month
  WinterDesignDay,                        !- Day Type
  0,                                      !- Daylight Saving Time Indicator
  WetBulb,                                !- Humidity Indicating Type
  ,                                       !- Humidity Indicating Day Schedule Name
  DefaultMultipliers,                     !- Dry-Bulb Temperature Range Modifier Type
  ,                                       !- Dry-Bulb Temperature Range Modifier Schedule Name
  AshraeClearSky;                         !- Solar Model Indicator

OS:SizingPeriod:DesignDay,
  {2aba5f88-b383-4d6c-8ceb-dcf2aabaea3b}, !- Handle
  Sizing Period Design Day 2,             !- Name
  33.2,                                   !- Maximum Dry-Bulb Temperature {C}
  10.7,                                   !- Daily Dry-Bulb Temperature Range {deltaC}
  23.8,                                   !- Humidity Indicating Conditions at Maximum Dry-Bulb {BasedOnField A3}
  99063,                                  !- Barometric Pressure {Pa}
  5.3,                                    !- Wind Speed {m/s}
  230,                                    !- Wind Direction {deg}
  1,                                      !- Sky Clearness
  0,                                      !- Rain Indicator
  0,                                      !- Snow Indicator
  21,                                     !- Day of Month
  7,                                      !- Month
  SummerDesignDay,                        !- Day Type
  0,                                      !- Daylight Saving Time Indicator
  WetBulb,                                !- Humidity Indicating Type
  ,                                       !- Humidity Indicating Day Schedule Name
  DefaultMultipliers,                     !- Dry-Bulb Temperature Range Modifier Type
  ,                                       !- Dry-Bulb Temperature Range Modifier Schedule Name
  AshraeClearSky;                         !- Solar Model Indicator

OS:ScheduleTypeLimits,
  {ff98389f-df29-437b-bd0a-769e485a9fd5}, !- Handle
  Temperature,                            !- Name
  -60,                                    !- Lower Limit Value {BasedOnField A4}
  200,                                    !- Upper Limit Value {BasedOnField A4}
  CONTINUOUS,                             !- Numeric Type
  Temperature;                            !- Unit Type

OS:DefaultScheduleSet,
  {218a5684-1ad9-409a-a7ff-2810ba4104f9}, !- Handle
  Default Schedules,                      !- Name
  ,                                       !- Hours of Operation Schedule Name
  {620f29e6-33d8-471e-a113-1d85b9336fd5}, !- Number of People Schedule Name
  {3359ac83-b24b-4f76-9be9-725d7bfc0ebc}, !- People Activity Level Schedule Name
  {b8d02174-db29-4128-88ee-20f9cac6dbd8}, !- Lighting Schedule Name
  {6f9c8fa5-6adf-4204-9d14-c07fa1613512}, !- Electric Equipment Schedule Name
  {9c210598-53f7-4840-b29e-0563bb1b7f5b}, !- Gas Equipment Schedule Name
  {81cfb147-df7f-4264-80f7-7ecd4861a1b6}, !- Hot Water Equipment Schedule Name
  {1629f7b6-de56-4dac-82f1-ef50cb3b046a}, !- Infiltration Schedule Name
  ,                                       !- Steam Equipment Schedule Name
  ;                                       !- Other Equipment Schedule Name

OS:Schedule:Ruleset,
  {620f29e6-33d8-471e-a113-1d85b9336fd5}, !- Handle
  Medium Office Number of People Schedule, !- Name
  {94094d7d-41aa-4693-80a8-33fcebf59378}, !- Schedule Type Limits Name
  {54b65b52-a499-48b7-88e8-de02def09703}, !- Default Day Schedule Name
  {3df34380-b2f9-4ac6-a178-29f7b0a015dc}; !- Summer Design Day Schedule Name

OS:Schedule:Day,
  {54b65b52-a499-48b7-88e8-de02def09703}, !- Handle
  Medium Office Number of People All Other Days Schedule, !- Name
  {94094d7d-41aa-4693-80a8-33fcebf59378}, !- Schedule Type Limits Name
  ,                                       !- Interpolate to Timestep
  24,                                     !- Hour 1
  0,                                      !- Minute 1
  0;                                      !- Value Until Time 1

OS:Schedule:Day,
  {ef7b05ae-95b3-4af4-836e-146610069c6f}, !- Handle
  Medium Office Number of People Summer Design Day Schedule, !- Name
  ,                                       !- Schedule Type Limits Name
  ,                                       !- Interpolate to Timestep
  6,                                      !- Hour 1
  0,                                      !- Minute 1
  0,                                      !- Value Until Time 1
  22,                                     !- Hour 2
  0,                                      !- Minute 2
  1,                                      !- Value Until Time 2
  24,                                     !- Hour 3
  0,                                      !- Minute 3
  0.05;                                   !- Value Until Time 3

OS:Schedule:Day,
  {3df34380-b2f9-4ac6-a178-29f7b0a015dc}, !- Handle
  Medium Office Number of People Summer Design Day Schedule 1, !- Name
  {94094d7d-41aa-4693-80a8-33fcebf59378}, !- Schedule Type Limits Name
  ,                                       !- Interpolate to Timestep
  6,                                      !- Hour 1
  0,                                      !- Minute 1
  0,                                      !- Value Until Time 1
  22,                                     !- Hour 2
  0,                                      !- Minute 2
  1,                                      !- Value Until Time 2
  24,                                     !- Hour 3
  0,                                      !- Minute 3
  0.05;                                   !- Value Until Time 3

OS:Schedule:Rule,
  {88538bc0-bc33-4623-b2d5-9885d3e2acef}, !- Handle
  Medium Office Number of People Schedule Weekdays Rule, !- Name
  {620f29e6-33d8-471e-a113-1d85b9336fd5}, !- Schedule Ruleset Name
  1,                                      !- Rule Order
  {f083187b-4d4a-4af3-874a-63fe2071f720}, !- Day Schedule Name
  ,                                       !- Apply Sunday
  Yes,                                    !- Apply Monday
  Yes,                                    !- Apply Tuesday
  Yes,                                    !- Apply Wednesday
  Yes,                                    !- Apply Thursday
  Yes;                                    !- Apply Friday

OS:Schedule:Day,
  {f083187b-4d4a-4af3-874a-63fe2071f720}, !- Handle
  Medium Office Number of People Weekdays Schedule, !- Name
  {94094d7d-41aa-4693-80a8-33fcebf59378}, !- Schedule Type Limits Name
  ,                                       !- Interpolate to Timestep
  6,                                      !- Hour 1
  0,                                      !- Minute 1
  0,                                      !- Value Until Time 1
  7,                                      !- Hour 2
  0,                                      !- Minute 2
  0.1,                                    !- Value Until Time 2
  8,                                      !- Hour 3
  0,                                      !- Minute 3
  0.2,                                    !- Value Until Time 3
  12,                                     !- Hour 4
  0,                                      !- Minute 4
  0.95,                                   !- Value Until Time 4
  13,                                     !- Hour 5
  0,                                      !- Minute 5
  0.5,                                    !- Value Until Time 5
  17,                                     !- Hour 6
  0,                                      !- Minute 6
  0.95,                                   !- Value Until Time 6
  18,                                     !- Hour 7
  0,                                      !- Minute 7
  0.7,                                    !- Value Until Time 7
  20,                                     !- Hour 8
  0,                                      !- Minute 8
  0.4,                                    !- Value Until Time 8
  22,                                     !- Hour 9
  0,                                      !- Minute 9
  0.1,                                    !- Value Until Time 9
  24,                                     !- Hour 10
  0,                                      !- Minute 10
  0.05;                                   !- Value Until Time 10

OS:Schedule:Rule,
  {40e2cd07-e8ef-42cb-982e-2e04191bef4a}, !- Handle
  Medium Office Number of People Schedule Saturday Rule, !- Name
  {620f29e6-33d8-471e-a113-1d85b9336fd5}, !- Schedule Ruleset Name
  0,                                      !- Rule Order
  {7a184067-9b7b-4f2d-a031-3441089b55b2}, !- Day Schedule Name
  ,                                       !- Apply Sunday
  ,                                       !- Apply Monday
  ,                                       !- Apply Tuesday
  ,                                       !- Apply Wednesday
  ,                                       !- Apply Thursday
  ,                                       !- Apply Friday
  Yes;                                    !- Apply Saturday

OS:Schedule:Day,
  {7a184067-9b7b-4f2d-a031-3441089b55b2}, !- Handle
  Medium Office Number of People Saturday Schedule, !- Name
  {94094d7d-41aa-4693-80a8-33fcebf59378}, !- Schedule Type Limits Name
  ,                                       !- Interpolate to Timestep
  6,                                      !- Hour 1
  0,                                      !- Minute 1
  0,                                      !- Value Until Time 1
  8,                                      !- Hour 2
  0,                                      !- Minute 2
  0.1,                                    !- Value Until Time 2
  14,                                     !- Hour 3
  0,                                      !- Minute 3
  0.5,                                    !- Value Until Time 3
  17,                                     !- Hour 4
  0,                                      !- Minute 4
  0.1,                                    !- Value Until Time 4
  24,                                     !- Hour 5
  0,                                      !- Minute 5
  0;                                      !- Value Until Time 5

OS:ScheduleTypeLimits,
  {94094d7d-41aa-4693-80a8-33fcebf59378}, !- Handle
  Fractional,                             !- Name
  0,                                      !- Lower Limit Value {BasedOnField A4}
  1,                                      !- Upper Limit Value {BasedOnField A4}
  Continuous;                             !- Numeric Type

OS:Schedule:Ruleset,
  {3359ac83-b24b-4f76-9be9-725d7bfc0ebc}, !- Handle
  Medium Office People Activity Level Schedule, !- Name
  {8f6f2061-6cba-410a-8868-fe85294866f7}, !- Schedule Type Limits Name
  {543b1b0e-2d7a-4ede-9afd-cc769b04f1e3}; !- Default Day Schedule Name

OS:Schedule:Day,
  {543b1b0e-2d7a-4ede-9afd-cc769b04f1e3}, !- Handle
  Medium Office People Activity Level All Days Schedule, !- Name
  {8f6f2061-6cba-410a-8868-fe85294866f7}, !- Schedule Type Limits Name
  ,                                       !- Interpolate to Timestep
  24,                                     !- Hour 1
  0,                                      !- Minute 1
  120;                                    !- Value Until Time 1

OS:ScheduleTypeLimits,
  {8f6f2061-6cba-410a-8868-fe85294866f7}, !- Handle
  ActivityLevel,                          !- Name
  0,                                      !- Lower Limit Value {BasedOnField A4}
  ,                                       !- Upper Limit Value {BasedOnField A4}
  Continuous,                             !- Numeric Type
  ActivityLevel;                          !- Unit Type

OS:Schedule:Ruleset,
  {b8d02174-db29-4128-88ee-20f9cac6dbd8}, !- Handle
  Medium Office Lighting Schedule,        !- Name
  {94094d7d-41aa-4693-80a8-33fcebf59378}, !- Schedule Type Limits Name
  {abe5b04d-5394-4553-9d96-36a54493c8a1}, !- Default Day Schedule Name
  {e5754586-5bec-4dc9-9985-e3f41a437cdc}, !- Summer Design Day Schedule Name
  {209a518a-f2e7-47a3-abbd-f5c547a5c360}; !- Winter Design Day Schedule Name

OS:Schedule:Day,
  {abe5b04d-5394-4553-9d96-36a54493c8a1}, !- Handle
  Medium Office Lighting All Other Days Schedule, !- Name
  {94094d7d-41aa-4693-80a8-33fcebf59378}, !- Schedule Type Limits Name
  ,                                       !- Interpolate to Timestep
  24,                                     !- Hour 1
  0,                                      !- Minute 1
  0.05;                                   !- Value Until Time 1

OS:Schedule:Day,
  {4743db95-1ef6-46a9-8647-b217bfbf167b}, !- Handle
  Medium Office Lighting Summer Design Day Schedule, !- Name
  ,                                       !- Schedule Type Limits Name
  ,                                       !- Interpolate to Timestep
  6,                                      !- Hour 1
  0,                                      !- Minute 1
  1,                                      !- Value Until Time 1
  24,                                     !- Hour 2
  0,                                      !- Minute 2
  0;                                      !- Value Until Time 2

OS:Schedule:Day,
  {e5754586-5bec-4dc9-9985-e3f41a437cdc}, !- Handle
  Medium Office Lighting Summer Design Day Schedule 1, !- Name
  {94094d7d-41aa-4693-80a8-33fcebf59378}, !- Schedule Type Limits Name
  ,                                       !- Interpolate to Timestep
  6,                                      !- Hour 1
  0,                                      !- Minute 1
  1,                                      !- Value Until Time 1
  24,                                     !- Hour 2
  0,                                      !- Minute 2
  0;                                      !- Value Until Time 2

OS:Schedule:Day,
  {bbc5af4e-e1d0-4bdf-9b95-d714d267a0b8}, !- Handle
  Medium Office Lighting Winter Design Day Schedule, !- Name
  ,                                       !- Schedule Type Limits Name
  ,                                       !- Interpolate to Timestep
  24,                                     !- Hour 1
  0,                                      !- Minute 1
  0;                                      !- Value Until Time 1

OS:Schedule:Day,
  {209a518a-f2e7-47a3-abbd-f5c547a5c360}, !- Handle
  Medium Office Lighting Winter Design Day Schedule 1, !- Name
  {94094d7d-41aa-4693-80a8-33fcebf59378}, !- Schedule Type Limits Name
  ,                                       !- Interpolate to Timestep
  24,                                     !- Hour 1
  0,                                      !- Minute 1
  0;                                      !- Value Until Time 1

OS:Schedule:Rule,
  {1d19baff-fd01-4f69-b7b4-1b70df271cad}, !- Handle
  Medium Office Lighting Schedule Weekdays Rule, !- Name
  {b8d02174-db29-4128-88ee-20f9cac6dbd8}, !- Schedule Ruleset Name
  1,                                      !- Rule Order
  {6be2fa1b-1e62-4f6a-9238-ca26fc2dd408}, !- Day Schedule Name
  ,                                       !- Apply Sunday
  Yes,                                    !- Apply Monday
  Yes,                                    !- Apply Tuesday
  Yes,                                    !- Apply Wednesday
  Yes,                                    !- Apply Thursday
  Yes;                                    !- Apply Friday

OS:Schedule:Day,
  {6be2fa1b-1e62-4f6a-9238-ca26fc2dd408}, !- Handle
  Medium Office Lighting Weekdays Schedule, !- Name
  {94094d7d-41aa-4693-80a8-33fcebf59378}, !- Schedule Type Limits Name
  ,                                       !- Interpolate to Timestep
  5,                                      !- Hour 1
  0,                                      !- Minute 1
  0.05,                                   !- Value Until Time 1
  7,                                      !- Hour 2
  0,                                      !- Minute 2
  0.1,                                    !- Value Until Time 2
  8,                                      !- Hour 3
  0,                                      !- Minute 3
  0.3,                                    !- Value Until Time 3
  17,                                     !- Hour 4
  0,                                      !- Minute 4
  0.9,                                    !- Value Until Time 4
  18,                                     !- Hour 5
  0,                                      !- Minute 5
  0.7,                                    !- Value Until Time 5
  20,                                     !- Hour 6
  0,                                      !- Minute 6
  0.5,                                    !- Value Until Time 6
  22,                                     !- Hour 7
  0,                                      !- Minute 7
  0.3,                                    !- Value Until Time 7
  23,                                     !- Hour 8
  0,                                      !- Minute 8
  0.1,                                    !- Value Until Time 8
  24,                                     !- Hour 9
  0,                                      !- Minute 9
  0.05;                                   !- Value Until Time 9

OS:Schedule:Rule,
  {b32adb1b-b811-470b-bca0-68d2a266fb86}, !- Handle
  Medium Office Lighting Schedule Saturday Rule, !- Name
  {b8d02174-db29-4128-88ee-20f9cac6dbd8}, !- Schedule Ruleset Name
  0,                                      !- Rule Order
  {a3531cb1-5d27-46bc-9e4a-bb875a5c2a66}, !- Day Schedule Name
  ,                                       !- Apply Sunday
  ,                                       !- Apply Monday
  ,                                       !- Apply Tuesday
  ,                                       !- Apply Wednesday
  ,                                       !- Apply Thursday
  ,                                       !- Apply Friday
  Yes;                                    !- Apply Saturday

OS:Schedule:Day,
  {a3531cb1-5d27-46bc-9e4a-bb875a5c2a66}, !- Handle
  Medium Office Lighting Saturday Schedule, !- Name
  {94094d7d-41aa-4693-80a8-33fcebf59378}, !- Schedule Type Limits Name
  ,                                       !- Interpolate to Timestep
  6,                                      !- Hour 1
  0,                                      !- Minute 1
  0.05,                                   !- Value Until Time 1
  8,                                      !- Hour 2
  0,                                      !- Minute 2
  0.1,                                    !- Value Until Time 2
  14,                                     !- Hour 3
  0,                                      !- Minute 3
  0.5,                                    !- Value Until Time 3
  17,                                     !- Hour 4
  0,                                      !- Minute 4
  0.15,                                   !- Value Until Time 4
  24,                                     !- Hour 5
  0,                                      !- Minute 5
  0.05;                                   !- Value Until Time 5

OS:Schedule:Ruleset,
  {6f9c8fa5-6adf-4204-9d14-c07fa1613512}, !- Handle
  Medium Office Electric Equipment Schedule, !- Name
  {94094d7d-41aa-4693-80a8-33fcebf59378}, !- Schedule Type Limits Name
  {789f9b4e-1a14-4b2c-859c-8025a0ea1b20}, !- Default Day Schedule Name
  {56cafa4a-d0af-496d-be5f-853d3d40308f}, !- Summer Design Day Schedule Name
  {6badecc0-d6e2-43cf-9e14-bdedf5d86d7f}; !- Winter Design Day Schedule Name

OS:Schedule:Day,
  {789f9b4e-1a14-4b2c-859c-8025a0ea1b20}, !- Handle
  Medium Office Electric Equipment All Other Days Schedule, !- Name
  {94094d7d-41aa-4693-80a8-33fcebf59378}, !- Schedule Type Limits Name
  ,                                       !- Interpolate to Timestep
  24,                                     !- Hour 1
  0,                                      !- Minute 1
  0.3;                                    !- Value Until Time 1

OS:Schedule:Day,
  {ad3b272f-4f74-4963-996e-5b24d037bb3d}, !- Handle
  Medium Office Electric Equipment Summer Design Day Schedule, !- Name
  ,                                       !- Schedule Type Limits Name
  ,                                       !- Interpolate to Timestep
  6,                                      !- Hour 1
  0,                                      !- Minute 1
  1,                                      !- Value Until Time 1
  24,                                     !- Hour 2
  0,                                      !- Minute 2
  0;                                      !- Value Until Time 2

OS:Schedule:Day,
  {56cafa4a-d0af-496d-be5f-853d3d40308f}, !- Handle
  Medium Office Electric Equipment Summer Design Day Schedule 1, !- Name
  {94094d7d-41aa-4693-80a8-33fcebf59378}, !- Schedule Type Limits Name
  ,                                       !- Interpolate to Timestep
  6,                                      !- Hour 1
  0,                                      !- Minute 1
  1,                                      !- Value Until Time 1
  24,                                     !- Hour 2
  0,                                      !- Minute 2
  0;                                      !- Value Until Time 2

OS:Schedule:Day,
  {f88d123d-3c64-4a64-ab44-19d33db28871}, !- Handle
  Medium Office Electric Equipment Winter Design Day Schedule, !- Name
  ,                                       !- Schedule Type Limits Name
  ,                                       !- Interpolate to Timestep
  24,                                     !- Hour 1
  0,                                      !- Minute 1
  0;                                      !- Value Until Time 1

OS:Schedule:Day,
  {6badecc0-d6e2-43cf-9e14-bdedf5d86d7f}, !- Handle
  Medium Office Electric Equipment Winter Design Day Schedule 1, !- Name
  {94094d7d-41aa-4693-80a8-33fcebf59378}, !- Schedule Type Limits Name
  ,                                       !- Interpolate to Timestep
  24,                                     !- Hour 1
  0,                                      !- Minute 1
  0;                                      !- Value Until Time 1

OS:Schedule:Rule,
  {41153691-ac8b-4c2e-b624-163cb3e30489}, !- Handle
  Medium Office Electric Equipment Schedule Weekdays Rule, !- Name
  {6f9c8fa5-6adf-4204-9d14-c07fa1613512}, !- Schedule Ruleset Name
  1,                                      !- Rule Order
  {602f04ea-27fb-475f-bac7-e0c22dd18594}, !- Day Schedule Name
  ,                                       !- Apply Sunday
  Yes,                                    !- Apply Monday
  Yes,                                    !- Apply Tuesday
  Yes,                                    !- Apply Wednesday
  Yes,                                    !- Apply Thursday
  Yes;                                    !- Apply Friday

OS:Schedule:Day,
  {602f04ea-27fb-475f-bac7-e0c22dd18594}, !- Handle
  Medium Office Electric Equipment Weekdays Schedule, !- Name
  {94094d7d-41aa-4693-80a8-33fcebf59378}, !- Schedule Type Limits Name
  ,                                       !- Interpolate to Timestep
  8,                                      !- Hour 1
  0,                                      !- Minute 1
  0.4,                                    !- Value Until Time 1
  12,                                     !- Hour 2
  0,                                      !- Minute 2
  0.9,                                    !- Value Until Time 2
  13,                                     !- Hour 3
  0,                                      !- Minute 3
  0.8,                                    !- Value Until Time 3
  17,                                     !- Hour 4
  0,                                      !- Minute 4
  0.9,                                    !- Value Until Time 4
  18,                                     !- Hour 5
  0,                                      !- Minute 5
  0.8,                                    !- Value Until Time 5
  20,                                     !- Hour 6
  0,                                      !- Minute 6
  0.6,                                    !- Value Until Time 6
  22,                                     !- Hour 7
  0,                                      !- Minute 7
  0.5,                                    !- Value Until Time 7
  24,                                     !- Hour 8
  0,                                      !- Minute 8
  0.4;                                    !- Value Until Time 8

OS:Schedule:Rule,
  {2508b062-c5be-46c4-9d97-46cec534e0c4}, !- Handle
  Medium Office Electric Equipment Schedule Saturday Rule, !- Name
  {6f9c8fa5-6adf-4204-9d14-c07fa1613512}, !- Schedule Ruleset Name
  0,                                      !- Rule Order
  {364d0035-ccf0-44b3-876a-1a173083f03f}, !- Day Schedule Name
  ,                                       !- Apply Sunday
  ,                                       !- Apply Monday
  ,                                       !- Apply Tuesday
  ,                                       !- Apply Wednesday