
OS:Version,
  {b7f7d02d-1604-4b03-90f9-73ca485a153d}, !- Handle
  1.4.0;                                  !- Version Identifier

OS:SimulationControl,
  {e1318c01-6e30-4d6b-84f8-99db38022866}, !- Handle
  Yes,                                    !- Do Zone Sizing Calculation
  Yes,                                    !- Do System Sizing Calculation
  ,                                       !- Do Plant Sizing Calculation
  No,                                     !- Run Simulation for Sizing Periods
  Yes;                                    !- Run Simulation for Weather File Run Periods

OS:Timestep,
  {7ecc33fe-ab32-474a-9b38-02f011d3aa1b}, !- Handle
  6;                                      !- Number of Timesteps per Hour

OS:RunPeriod,
  {fe4000cc-ee25-4b7a-920e-2c5aabbc16d2}, !- Handle
  Run Period 1,                           !- Name
  1,                                      !- Begin Month
  1,                                      !- Begin Day of Month
  12,                                     !- End Month
  31,                                     !- End Day of Month
  No,                                     !- Use Weather File Holidays and Special Days
  No,                                     !- Use Weather File Daylight Saving Period
  No,                                     !- Apply Weekend Holiday Rule
  Yes,                                    !- Use Weather File Rain Indicators
  Yes,                                    !- Use Weather File Snow Indicators
  1;                                      !- Number of Times Runperiod to be Repeated

OS:SurfaceConvectionAlgorithm:Inside,
  {e8cf4f32-3730-481b-8c95-f273537befc7}, !- Handle
  TARP;                                   !- Algorithm

OS:SurfaceConvectionAlgorithm:Outside,
  {f615c342-79db-4c2c-8a3f-1330bc73dd73}, !- Handle
  DOE-2;                                  !- Algorithm

OS:HeatBalanceAlgorithm,
  {e26e2d5b-962c-4652-93bd-3d95d4faeb7a}, !- Handle
  ConductionTransferFunction,             !- Algorithm
  200;                                    !- Surface Temperature Upper Limit {F}

OS:ZoneAirHeatBalanceAlgorithm,
  {8d9d0f4e-c299-4a86-84a4-dd3dfe539a11}, !- Handle
  AnalyticalSolution;                     !- Algorithm

OS:ConvergenceLimits,
  {47860945-6fd3-4dcb-844c-176379f833f2}; !- Handle

OS:ShadowCalculation,
  {186308d5-e9e6-4393-9fee-18a4262228d3}, !- Handle
  7,                                      !- Calculation Frequency
  15000;                                  !- Maximum Figures in Shadow Overlap Calculations

OS:Site,
  {1137f3ab-f84f-42e2-9367-276033421753}, !- Handle
  Site 1,                                 !- Name
  41.77,                                  !- Latitude {deg}
  -87.75,                                 !- Longitude {deg}
  -6,                                     !- Time Zone {hr}
  190,                                    !- Elevation {m}
  ;                                       !- Terrain

OS:Site:GroundTemperature:BuildingSurface,
  {6a50dd74-4835-47e3-b61f-cf36c81ec90b}, !- Handle
  19.527,                                 !- January Ground Temperature {C}
  19.502,                                 !- February Ground Temperature {C}
  19.536,                                 !- March Ground Temperature {C}
  19.598,                                 !- April Ground Temperature {C}
  20.002,                                 !- May Ground Temperature {C}
  21.64,                                  !- June Ground Temperature {C}
  22.225,                                 !- July Ground Temperature {C}
  22.375,                                 !- August Ground Temperature {C}
  21.449,                                 !- September Ground Temperature {C}
  20.121,                                 !- October Ground Temperature {C}
  19.802,                                 !- November Ground Temperature {C}
  19.633;                                 !- December Ground Temperature {C}

OS:Site:WaterMainsTemperature,
  {3328fd5f-14cc-468f-a59a-464487f83dc2}, !- Handle
  Correlation,                            !- Calculation Method
  ,                                       !- Temperature Schedule Name
  9.69,                                   !- Annual Average Outdoor Air Temperature {C}
  28.1;                                   !- Maximum Difference In Monthly Average Outdoor Air Temperatures {deltaC}

OS:SizingPeriod:DesignDay,
  {072a1e42-67d6-4ea6-9085-3a96354a375a}, !- Handle
  Sizing Period Design Day 1,             !- Name
  -20.6,                                  !- Maximum Dry-Bulb Temperature {C}
  0,                                      !- Daily Dry-Bulb Temperature Range {deltaC}
  -20.6,                                  !- Humidity Indicating Conditions at Maximum Dry-Bulb {BasedOnField A3}
  99063,                                  !- Barometric Pressure {Pa}
  4.9,                                    !- Wind Speed {m/s}
  270,                                    !- Wind Direction {deg}
  0,                                      !- Sky Clearness
  0,                                      !- Rain Indicator
  0,                                      !- Snow Indicator
  21,                                     !- Day of Month
  1,                                      !- Month
  WinterDesignDay,                        !- Day Type
  0,                                      !- Daylight Saving Time Indicator
  WetBulb,                                !- Humidity Indicating Type
  ,                                       !- Humidity Indicating Day Schedule Name
  DefaultMultipliers,                     !- Dry-Bulb Temperature Range Modifier Type
  ,                                       !- Dry-Bulb Temperature Range Modifier Schedule Name
  AshraeClearSky;                         !- Solar Model Indicator

OS:SizingPeriod:DesignDay,
  {fdf06131-e0cb-40a9-b25f-7d4e4b8af33c}, !- Handle
  Sizing Period Design Day 2,             !- Name
  33.2,                                   !- Maximum Dry-Bulb Temperature {C}
  10.7,                                   !- Daily Dry-Bulb Temperature Range {deltaC}
  23.8,                                   !- Humidity Indicating Conditions at Maximum Dry-Bulb {BasedOnField A3}
  99063,                                  !- Barometric Pressure {Pa}
  5.3,                                    !- Wind Speed {m/s}
  230,                                    !- Wind Direction {deg}
  1,                                      !- Sky Clearness
  0,                                      !- Rain Indicator
  0,                                      !- Snow Indicator
  21,                                     !- Day of Month
  7,                                      !- Month
  SummerDesignDay,                        !- Day Type
  0,                                      !- Daylight Saving Time Indicator
  WetBulb,                                !- Humidity Indicating Type
  ,                                       !- Humidity Indicating Day Schedule Name
  DefaultMultipliers,                     !- Dry-Bulb Temperature Range Modifier Type
  ,                                       !- Dry-Bulb Temperature Range Modifier Schedule Name
  AshraeClearSky;                         !- Solar Model Indicator

OS:ScheduleTypeLimits,
  {85098397-9a1a-47b1-909a-9f10f58309ef}, !- Handle
  Temperature,                            !- Name
  -60,                                    !- Lower Limit Value {BasedOnField A4}
  200,                                    !- Upper Limit Value {BasedOnField A4}
  CONTINUOUS,                             !- Numeric Type
  Temperature;                            !- Unit Type

OS:DefaultScheduleSet,
  {88e5675b-e0ae-4ec7-9798-1dac1807c800}, !- Handle
  Default Schedules,                      !- Name
  ,                                       !- Hours of Operation Schedule Name
  {49ac0f31-64cb-4546-bd9b-ae9a561af0e5}, !- Number of People Schedule Name
  {295fea1c-8d79-4908-9f54-b8ee5b4cc152}, !- People Activity Level Schedule Name
  {26e347eb-7539-4e67-9b46-aaa682ed2165}, !- Lighting Schedule Name
  {408006a1-b774-4ace-95b0-7360100739dc}, !- Electric Equipment Schedule Name
  {6328b06e-c681-480c-885b-efaa713d38e8}, !- Gas Equipment Schedule Name
  {b2f8a317-0a1a-47fa-a912-026da5d56eeb}, !- Hot Water Equipment Schedule Name
  {2afffb89-0b30-4a51-92cf-29a9063892b9}, !- Infiltration Schedule Name
  ,                                       !- Steam Equipment Schedule Name
  ;                                       !- Other Equipment Schedule Name

OS:Schedule:Ruleset,
  {49ac0f31-64cb-4546-bd9b-ae9a561af0e5}, !- Handle
  Medium Office Number of People Schedule, !- Name
  {d590dd56-2076-4f55-8578-43c2c02309cd}, !- Schedule Type Limits Name
  {3fefd148-d0cd-4a35-96bc-02a8fb7d91e8}, !- Default Day Schedule Name
  {dc3688d9-e607-4071-bb4b-66729e1ccfb8}; !- Summer Design Day Schedule Name

OS:Schedule:Day,
  {3fefd148-d0cd-4a35-96bc-02a8fb7d91e8}, !- Handle
  Medium Office Number of People All Other Days Schedule, !- Name
  {d590dd56-2076-4f55-8578-43c2c02309cd}, !- Schedule Type Limits Name
  ,                                       !- Interpolate to Timestep
  24,                                     !- Hour 1
  0,                                      !- Minute 1
  0;                                      !- Value Until Time 1

OS:Schedule:Day,
  {e06b93f1-6a5f-4018-b60c-7c5d4cc2fdb3}, !- Handle
  Medium Office Number of People Summer Design Day Schedule, !- Name
  ,                                       !- Schedule Type Limits Name
  ,                                       !- Interpolate to Timestep
  6,                                      !- Hour 1
  0,                                      !- Minute 1
  0,                                      !- Value Until Time 1
  22,                                     !- Hour 2
  0,                                      !- Minute 2
  1,                                      !- Value Until Time 2
  24,                                     !- Hour 3
  0,                                      !- Minute 3
  0.05;                                   !- Value Until Time 3

OS:Schedule:Day,
  {dc3688d9-e607-4071-bb4b-66729e1ccfb8}, !- Handle
  Medium Office Number of People Summer Design Day Schedule 1, !- Name
  {d590dd56-2076-4f55-8578-43c2c02309cd}, !- Schedule Type Limits Name
  ,                                       !- Interpolate to Timestep
  6,                                      !- Hour 1
  0,                                      !- Minute 1
  0,                                      !- Value Until Time 1
  22,                                     !- Hour 2
  0,                                      !- Minute 2
  1,                                      !- Value Until Time 2
  24,                                     !- Hour 3
  0,                                      !- Minute 3
  0.05;                                   !- Value Until Time 3

OS:Schedule:Rule,
  {7a032f66-f65c-4f04-a9a8-2ee4756d9328}, !- Handle
  Medium Office Number of People Schedule Weekdays Rule, !- Name
  {49ac0f31-64cb-4546-bd9b-ae9a561af0e5}, !- Schedule Ruleset Name
  1,                                      !- Rule Order
  {545ba6f2-1365-429e-8222-05fb16045a60}, !- Day Schedule Name
  ,                                       !- Apply Sunday
  Yes,                                    !- Apply Monday
  Yes,                                    !- Apply Tuesday
  Yes,                                    !- Apply Wednesday
  Yes,                                    !- Apply Thursday
  Yes;                                    !- Apply Friday

OS:Schedule:Day,
  {545ba6f2-1365-429e-8222-05fb16045a60}, !- Handle
  Medium Office Number of People Weekdays Schedule, !- Name
  {d590dd56-2076-4f55-8578-43c2c02309cd}, !- Schedule Type Limits Name
  ,                                       !- Interpolate to Timestep
  6,                                      !- Hour 1
  0,                                      !- Minute 1
  0,                                      !- Value Until Time 1
  7,                                      !- Hour 2
  0,                                      !- Minute 2
  0.1,                                    !- Value Until Time 2
  8,                                      !- Hour 3
  0,                                      !- Minute 3
  0.2,                                    !- Value Until Time 3
  12,                                     !- Hour 4
  0,                                      !- Minute 4
  0.95,                                   !- Value Until Time 4
  13,                                     !- Hour 5
  0,                                      !- Minute 5
  0.5,                                    !- Value Until Time 5
  17,                                     !- Hour 6
  0,                                      !- Minute 6
  0.95,                                   !- Value Until Time 6
  18,                                     !- Hour 7
  0,                                      !- Minute 7
  0.7,                                    !- Value Until Time 7
  20,                                     !- Hour 8
  0,                                      !- Minute 8
  0.4,                                    !- Value Until Time 8
  22,                                     !- Hour 9
  0,                                      !- Minute 9
  0.1,                                    !- Value Until Time 9
  24,                                     !- Hour 10
  0,                                      !- Minute 10
  0.05;                                   !- Value Until Time 10

OS:Schedule:Rule,
  {e7482b14-cbb8-4b4b-a080-5123986f3e2d}, !- Handle
  Medium Office Number of People Schedule Saturday Rule, !- Name
  {49ac0f31-64cb-4546-bd9b-ae9a561af0e5}, !- Schedule Ruleset Name
  0,                                      !- Rule Order
  {de8408b1-2008-4555-983a-7b81e6140118}, !- Day Schedule Name
  ,                                       !- Apply Sunday
  ,                                       !- Apply Monday
  ,                                       !- Apply Tuesday
  ,                                       !- Apply Wednesday
  ,                                       !- Apply Thursday
  ,                                       !- Apply Friday
  Yes;                                    !- Apply Saturday

OS:Schedule:Day,
  {de8408b1-2008-4555-983a-7b81e6140118}, !- Handle
  Medium Office Number of People Saturday Schedule, !- Name
  {d590dd56-2076-4f55-8578-43c2c02309cd}, !- Schedule Type Limits Name
  ,                                       !- Interpolate to Timestep
  6,                                      !- Hour 1
  0,                                      !- Minute 1
  0,                                      !- Value Until Time 1
  8,                                      !- Hour 2
  0,                                      !- Minute 2
  0.1,                                    !- Value Until Time 2
  14,                                     !- Hour 3
  0,                                      !- Minute 3
  0.5,                                    !- Value Until Time 3
  17,                                     !- Hour 4
  0,                                      !- Minute 4
  0.1,                                    !- Value Until Time 4
  24,                                     !- Hour 5
  0,                                      !- Minute 5
  0;                                      !- Value Until Time 5

OS:ScheduleTypeLimits,
  {d590dd56-2076-4f55-8578-43c2c02309cd}, !- Handle
  Fractional,                             !- Name
  0,                                      !- Lower Limit Value {BasedOnField A4}
  1,                                      !- Upper Limit Value {BasedOnField A4}
  Continuous;                             !- Numeric Type

OS:Schedule:Ruleset,
  {295fea1c-8d79-4908-9f54-b8ee5b4cc152}, !- Handle
  Medium Office People Activity Level Schedule, !- Name
  {5bcc580e-c437-4b8f-ba5b-c8576e9f097d}, !- Schedule Type Limits Name
  {d53a2501-45e7-4c36-8871-c5372eae4fa1}; !- Default Day Schedule Name

OS:Schedule:Day,
  {d53a2501-45e7-4c36-8871-c5372eae4fa1}, !- Handle
  Medium Office People Activity Level All Days Schedule, !- Name
  {5bcc580e-c437-4b8f-ba5b-c8576e9f097d}, !- Schedule Type Limits Name
  ,                                       !- Interpolate to Timestep
  24,                                     !- Hour 1
  0,                                      !- Minute 1
  120;                                    !- Value Until Time 1

OS:ScheduleTypeLimits,
  {5bcc580e-c437-4b8f-ba5b-c8576e9f097d}, !- Handle
  ActivityLevel,                          !- Name
  0,                                      !- Lower Limit Value {BasedOnField A4}
  ,                                       !- Upper Limit Value {BasedOnField A4}
  Continuous,                             !- Numeric Type
  ActivityLevel;                          !- Unit Type

OS:Schedule:Ruleset,
  {26e347eb-7539-4e67-9b46-aaa682ed2165}, !- Handle
  Medium Office Lighting Schedule,        !- Name
  {d590dd56-2076-4f55-8578-43c2c02309cd}, !- Schedule Type Limits Name
  {b3e5c300-1fb9-412c-8c10-c9ca7fb04d26}, !- Default Day Schedule Name
  {1376a817-8c29-4839-8c2d-fc4d6db9535b}, !- Summer Design Day Schedule Name
  {cc6d3cbc-c63d-42a1-9b75-75d30a0fcc91}; !- Winter Design Day Schedule Name

OS:Schedule:Day,
  {b3e5c300-1fb9-412c-8c10-c9ca7fb04d26}, !- Handle
  Medium Office Lighting All Other Days Schedule, !- Name
  {d590dd56-2076-4f55-8578-43c2c02309cd}, !- Schedule Type Limits Name
  ,                                       !- Interpolate to Timestep
  24,                                     !- Hour 1
  0,                                      !- Minute 1
  0.05;                                   !- Value Until Time 1

OS:Schedule:Day,
  {4c2ef783-d511-41c9-b64d-5fd68e6868f1}, !- Handle
  Medium Office Lighting Summer Design Day Schedule, !- Name
  ,                                       !- Schedule Type Limits Name
  ,                                       !- Interpolate to Timestep
  6,                                      !- Hour 1
  0,                                      !- Minute 1
  1,                                      !- Value Until Time 1
  24,                                     !- Hour 2
  0,                                      !- Minute 2
  0;                                      !- Value Until Time 2

OS:Schedule:Day,
  {1376a817-8c29-4839-8c2d-fc4d6db9535b}, !- Handle
  Medium Office Lighting Summer Design Day Schedule 1, !- Name
  {d590dd56-2076-4f55-8578-43c2c02309cd}, !- Schedule Type Limits Name
  ,                                       !- Interpolate to Timestep
  6,                                      !- Hour 1
  0,                                      !- Minute 1
  1,                                      !- Value Until Time 1
  24,                                     !- Hour 2
  0,                                      !- Minute 2
  0;                                      !- Value Until Time 2

OS:Schedule:Day,
  {fe928f0d-f91e-4d59-8b38-c9f0ad8e742c}, !- Handle
  Medium Office Lighting Winter Design Day Schedule, !- Name
  ,                                       !- Schedule Type Limits Name
  ,                                       !- Interpolate to Timestep
  24,                                     !- Hour 1
  0,                                      !- Minute 1
  0;                                      !- Value Until Time 1

OS:Schedule:Day,
  {cc6d3cbc-c63d-42a1-9b75-75d30a0fcc91}, !- Handle
  Medium Office Lighting Winter Design Day Schedule 1, !- Name
  {d590dd56-2076-4f55-8578-43c2c02309cd}, !- Schedule Type Limits Name
  ,                                       !- Interpolate to Timestep
  24,                                     !- Hour 1
  0,                                      !- Minute 1
  0;                                      !- Value Until Time 1

OS:Schedule:Rule,
  {3b4be8b1-e1e3-4e64-a4c9-f25c1ec181cb}, !- Handle
  Medium Office Lighting Schedule Weekdays Rule, !- Name
  {26e347eb-7539-4e67-9b46-aaa682ed2165}, !- Schedule Ruleset Name
  1,                                      !- Rule Order
  {e8432d3b-6e85-4f68-8958-3d2988210339}, !- Day Schedule Name
  ,                                       !- Apply Sunday
  Yes,                                    !- Apply Monday
  Yes,                                    !- Apply Tuesday
  Yes,                                    !- Apply Wednesday
  Yes,                                    !- Apply Thursday
  Yes;                                    !- Apply Friday

OS:Schedule:Day,
  {e8432d3b-6e85-4f68-8958-3d2988210339}, !- Handle
  Medium Office Lighting Weekdays Schedule, !- Name
  {d590dd56-2076-4f55-8578-43c2c02309cd}, !- Schedule Type Limits Name
  ,                                       !- Interpolate to Timestep
  5,                                      !- Hour 1
  0,                                      !- Minute 1
  0.05,                                   !- Value Until Time 1
  7,                                      !- Hour 2
  0,                                      !- Minute 2
  0.1,                                    !- Value Until Time 2
  8,                                      !- Hour 3
  0,                                      !- Minute 3
  0.3,                                    !- Value Until Time 3
  17,                                     !- Hour 4
  0,                                      !- Minute 4
  0.9,                                    !- Value Until Time 4
  18,                                     !- Hour 5
  0,                                      !- Minute 5
  0.7,                                    !- Value Until Time 5
  20,                                     !- Hour 6
  0,                                      !- Minute 6
  0.5,                                    !- Value Until Time 6
  22,                                     !- Hour 7
  0,                                      !- Minute 7
  0.3,                                    !- Value Until Time 7
  23,                                     !- Hour 8
  0,                                      !- Minute 8
  0.1,                                    !- Value Until Time 8
  24,                                     !- Hour 9
  0,                                      !- Minute 9
  0.05;                                   !- Value Until Time 9

OS:Schedule:Rule,
  {56f4e9fc-f94b-45d4-897d-9cdcdf97b0a3}, !- Handle
  Medium Office Lighting Schedule Saturday Rule, !- Name
  {26e347eb-7539-4e67-9b46-aaa682ed2165}, !- Schedule Ruleset Name
  0,                                      !- Rule Order
  {6ba27af9-2bdd-47fb-81df-6bd4bd386a26}, !- Day Schedule Name
  ,                                       !- Apply Sunday
  ,                                       !- Apply Monday
  ,                                       !- Apply Tuesday
  ,                                       !- Apply Wednesday
  ,                                       !- Apply Thursday
  ,                                       !- Apply Friday
  Yes;                                    !- Apply Saturday

OS:Schedule:Day,
  {6ba27af9-2bdd-47fb-81df-6bd4bd386a26}, !- Handle
  Medium Office Lighting Saturday Schedule, !- Name
  {d590dd56-2076-4f55-8578-43c2c02309cd}, !- Schedule Type Limits Name
  ,                                       !- Interpolate to Timestep
  6,                                      !- Hour 1
  0,                                      !- Minute 1
  0.05,                                   !- Value Until Time 1
  8,                                      !- Hour 2
  0,                                      !- Minute 2
  0.1,                                    !- Value Until Time 2
  14,                                     !- Hour 3
  0,                                      !- Minute 3
  0.5,                                    !- Value Until Time 3
  17,                                     !- Hour 4
  0,                                      !- Minute 4
  0.15,                                   !- Value Until Time 4
  24,                                     !- Hour 5
  0,                                      !- Minute 5
  0.05;                                   !- Value Until Time 5

OS:Schedule:Ruleset,
  {408006a1-b774-4ace-95b0-7360100739dc}, !- Handle
  Medium Office Electric Equipment Schedule, !- Name
  {d590dd56-2076-4f55-8578-43c2c02309cd}, !- Schedule Type Limits Name
  {ee3658bc-ab2e-43e1-bad6-febc15c06546}, !- Default Day Schedule Name
  {4450ae16-8004-4140-9409-905ea4d3b35e}, !- Summer Design Day Schedule Name
  {708ecf22-a440-41d9-bc84-f887cc5716cd}; !- Winter Design Day Schedule Name

OS:Schedule:Day,
  {ee3658bc-ab2e-43e1-bad6-febc15c06546}, !- Handle
  Medium Office Electric Equipment All Other Days Schedule, !- Name
  {d590dd56-2076-4f55-8578-43c2c02309cd}, !- Schedule Type Limits Name
  ,                                       !- Interpolate to Timestep
  24,                                     !- Hour 1
  0,                                      !- Minute 1
  0.3;                                    !- Value Until Time 1

OS:Schedule:Day,
  {71933987-7571-4173-900c-d932a3ac7872}, !- Handle
  Medium Office Electric Equipment Summer Design Day Schedule, !- Name
  ,                                       !- Schedule Type Limits Name
  ,                                       !- Interpolate to Timestep
  6,                                      !- Hour 1
  0,                                      !- Minute 1
  1,                                      !- Value Until Time 1
  24,                                     !- Hour 2
  0,                                      !- Minute 2
  0;                                      !- Value Until Time 2

OS:Schedule:Day,
  {4450ae16-8004-4140-9409-905ea4d3b35e}, !- Handle
  Medium Office Electric Equipment Summer Design Day Schedule 1, !- Name
  {d590dd56-2076-4f55-8578-43c2c02309cd}, !- Schedule Type Limits Name
  ,                                       !- Interpolate to Timestep
  6,                                      !- Hour 1
  0,                                      !- Minute 1
  1,                                      !- Value Until Time 1
  24,                                     !- Hour 2
  0,                                      !- Minute 2
  0;                                      !- Value Until Time 2

OS:Schedule:Day,
  {7a136ec4-f112-4525-b0bb-0f61224343fb}, !- Handle
  Medium Office Electric Equipment Winter Design Day Schedule, !- Name
  ,                                       !- Schedule Type Limits Name
  ,                                       !- Interpolate to Timestep
  24,                                     !- Hour 1
  0,                                      !- Minute 1
  0;                                      !- Value Until Time 1

OS:Schedule:Day,
  {708ecf22-a440-41d9-bc84-f887cc5716cd}, !- Handle
  Medium Office Electric Equipment Winter Design Day Schedule 1, !- Name
  {d590dd56-2076-4f55-8578-43c2c02309cd}, !- Schedule Type Limits Name
  ,                                       !- Interpolate to Timestep
  24,                                     !- Hour 1
  0,                                      !- Minute 1
  0;                                      !- Value Until Time 1

OS:Schedule:Rule,
  {5a78ed46-684a-4c8f-851e-5c1ebc8cb4d6}, !- Handle
  Medium Office Electric Equipment Schedule Weekdays Rule, !- Name
  {408006a1-b774-4ace-95b0-7360100739dc}, !- Schedule Ruleset Name
  1,                                      !- Rule Order
  {7035c088-1f86-4070-9f5b-79fedc1c2876}, !- Day Schedule Name
  ,                                       !- Apply Sunday
  Yes,                                    !- Apply Monday
  Yes,                                    !- Apply Tuesday
  Yes,                                    !- Apply Wednesday
  Yes,                                    !- Apply Thursday
  Yes;                                    !- Apply Friday

OS:Schedule:Day,
  {7035c088-1f86-4070-9f5b-79fedc1c2876}, !- Handle
  Medium Office Electric Equipment Weekdays Schedule, !- Name
  {d590dd56-2076-4f55-8578-43c2c02309cd}, !- Schedule Type Limits Name
  ,                                       !- Interpolate to Timestep
  8,                                      !- Hour 1
  0,                                      !- Minute 1
  0.4,                                    !- Value Until Time 1
  12,                                     !- Hour 2
  0,                                      !- Minute 2
  0.9,                                    !- Value Until Time 2
  13,                                     !- Hour 3
  0,                                      !- Minute 3
  0.8,                                    !- Value Until Time 3
  17,                                     !- Hour 4
  0,                                      !- Minute 4
  0.9,                                    !- Value Until Time 4
  18,                                     !- Hour 5
  0,                                      !- Minute 5
  0.8,                                    !- Value Until Time 5
  20,                                     !- Hour 6
  0,                                      !- Minute 6
  0.6,                                    !- Value Until Time 6
  22,                                     !- Hour 7
  0,                                      !- Minute 7
  0.5,                                    !- Value Until Time 7
  24,                                     !- Hour 8
  0,                                      !- Minute 8
  0.4;                                    !- Value Until Time 8

OS:Schedule:Rule,
  {944814b0-6b45-40ca-87a6-22176168b396}, !- Handle
  Medium Office Electric Equipment Schedule Saturday Rule, !- Name
  {408006a1-b774-4ace-95b0-7360100739dc}, !- Schedule Ruleset Name
  0,                                      !- Rule Order
  {ed1298ba-99a5-4dfc-9628-68db4609d775}, !- Day Schedule Name
  ,                                       !- Apply Sunday
  ,                                       !- Apply Monday
  ,                                       !- Apply Tuesday
  ,                                       !- Apply Wednesday