
OS:Version,
  {0c553c93-8afb-467f-984c-e69fd8d97853}, !- Handle
  1.12.6;                                 !- Version Identifier

OS:SimulationControl,
  {98203443-21c1-413a-be71-d711605edfd4}, !- Handle
  Yes,                                    !- Do Zone Sizing Calculation
  Yes,                                    !- Do System Sizing Calculation
  ,                                       !- Do Plant Sizing Calculation
  No,                                     !- Run Simulation for Sizing Periods
  Yes;                                    !- Run Simulation for Weather File Run Periods

OS:Timestep,
  {837936bd-3cba-444a-844b-fd100e2362f3}, !- Handle
  6;                                      !- Number of Timesteps per Hour

OS:RunPeriod,
  {d704f3d4-4f9d-45e0-82c9-65f3770b718e}, !- Handle
  Run Period 1,                           !- Name
  1,                                      !- Begin Month
  1,                                      !- Begin Day of Month
  12,                                     !- End Month
  31,                                     !- End Day of Month
  No,                                     !- Use Weather File Holidays and Special Days
  No,                                     !- Use Weather File Daylight Saving Period
  No,                                     !- Apply Weekend Holiday Rule
  Yes,                                    !- Use Weather File Rain Indicators
  Yes,                                    !- Use Weather File Snow Indicators
  1;                                      !- Number of Times Runperiod to be Repeated

OS:SurfaceConvectionAlgorithm:Inside,
  {6e95a7d9-13cd-4628-aa60-fa52a56d57b3}, !- Handle
  TARP;                                   !- Algorithm

OS:SurfaceConvectionAlgorithm:Outside,
  {22397729-aada-4d15-a0ed-00ddf3bb25cb}, !- Handle
  DOE-2;                                  !- Algorithm

OS:HeatBalanceAlgorithm,
  {f52f90a4-a724-4f0e-8a86-d2a8b6c95d04}, !- Handle
  ConductionTransferFunction,             !- Algorithm
  200;                                    !- Surface Temperature Upper Limit {C}

OS:ZoneAirHeatBalanceAlgorithm,
  {bbf9c8f8-f96c-45ad-ad3d-7035db825d4a}, !- Handle
  ThirdOrderBackwardDifference;           !- Algorithm

OS:ConvergenceLimits,
  {4d36190f-6b06-4d8c-b7f8-528dca6cf543}, !- Handle
  1;                                      !- Minimum System Timestep {minutes}

OS:ShadowCalculation,
  {beebc8a4-1fc0-478d-922c-ff5358d1aa4a}, !- Handle
  20,                                     !- Calculation Frequency
  15000;                                  !- Maximum Figures in Shadow Overlap Calculations

OS:Site,
  {8c08247e-bf56-4cd8-b99b-fadcd265fceb}, !- Handle
  Site 1,                                 !- Name
  41.77,                                  !- Latitude {deg}
  -87.75,                                 !- Longitude {deg}
  -6,                                     !- Time Zone {hr}
  190,                                    !- Elevation {m}
  ;                                       !- Terrain

OS:Site:GroundTemperature:BuildingSurface,
  {c30cf400-ed05-4f47-b7dd-fdd2ec77c14a}, !- Handle
  19.527,                                 !- January Ground Temperature {C}
  19.502,                                 !- February Ground Temperature {C}
  19.536,                                 !- March Ground Temperature {C}
  19.598,                                 !- April Ground Temperature {C}
  20.002,                                 !- May Ground Temperature {C}
  21.64,                                  !- June Ground Temperature {C}
  22.225,                                 !- July Ground Temperature {C}
  22.375,                                 !- August Ground Temperature {C}
  21.449,                                 !- September Ground Temperature {C}
  20.121,                                 !- October Ground Temperature {C}
  19.802,                                 !- November Ground Temperature {C}
  19.633;                                 !- December Ground Temperature {C}

OS:Site:GroundTemperature:Deep,
  {cf9f1860-1dad-4910-8832-9c923c26bc62}, !- Handle
  19.527,                                 !- January Deep Ground Temperature {C}
  19.502,                                 !- February Deep Ground Temperature {C}
  19.536,                                 !- March Deep Ground Temperature {C}
  19.598,                                 !- April Deep Ground Temperature {C}
  20.002,                                 !- May Deep Ground Temperature {C}
  21.64,                                  !- June Deep Ground Temperature {C}
  22.225,                                 !- July Deep Ground Temperature {C}
  22.375,                                 !- August Deep Ground Temperature {C}
  21.449,                                 !- September Deep Ground Temperature {C}
  20.121,                                 !- October Deep Ground Temperature {C}
  19.802,                                 !- November Deep Ground Temperature {C}
  19.633;                                 !- December Deep Ground Temperature {C}

OS:Site:WaterMainsTemperature,
  {8eb9eaa1-c1d6-496b-8b5e-bfe4a3b5aeb5}, !- Handle
  Correlation,                            !- Calculation Method
  ,                                       !- Temperature Schedule Name
  9.69,                                   !- Annual Average Outdoor Air Temperature {C}
  28.1;                                   !- Maximum Difference In Monthly Average Outdoor Air Temperatures {deltaC}

OS:SizingPeriod:DesignDay,
  {939bf6fe-044a-431f-8d7f-18627d518598}, !- Handle
  Sizing Period Design Day 1,             !- Name
  -20.6,                                  !- Maximum Dry-Bulb Temperature {C}
  0,                                      !- Daily Dry-Bulb Temperature Range {deltaC}
  -20.6,                                  !- Humidity Indicating Conditions at Maximum Dry-Bulb
  99063,                                  !- Barometric Pressure {Pa}
  4.9,                                    !- Wind Speed {m/s}
  270,                                    !- Wind Direction {deg}
  0,                                      !- Sky Clearness
  0,                                      !- Rain Indicator
  0,                                      !- Snow Indicator
  21,                                     !- Day of Month
  1,                                      !- Month
  WinterDesignDay,                        !- Day Type
  0,                                      !- Daylight Saving Time Indicator
  WetBulb,                                !- Humidity Indicating Type
  ,                                       !- Humidity Indicating Day Schedule Name
  DefaultMultipliers,                     !- Dry-Bulb Temperature Range Modifier Type
  ,                                       !- Dry-Bulb Temperature Range Modifier Schedule Name
  AshraeClearSky;                         !- Solar Model Indicator

OS:SizingPeriod:DesignDay,
  {be3dc419-3921-49b4-a3cd-7319af444c27}, !- Handle
  Sizing Period Design Day 2,             !- Name
  33.2,                                   !- Maximum Dry-Bulb Temperature {C}
  10.7,                                   !- Daily Dry-Bulb Temperature Range {deltaC}
  23.8,                                   !- Humidity Indicating Conditions at Maximum Dry-Bulb
  99063,                                  !- Barometric Pressure {Pa}
  5.3,                                    !- Wind Speed {m/s}
  230,                                    !- Wind Direction {deg}
  1,                                      !- Sky Clearness
  0,                                      !- Rain Indicator
  0,                                      !- Snow Indicator
  21,                                     !- Day of Month
  7,                                      !- Month
  SummerDesignDay,                        !- Day Type
  0,                                      !- Daylight Saving Time Indicator
  WetBulb,                                !- Humidity Indicating Type
  ,                                       !- Humidity Indicating Day Schedule Name
  DefaultMultipliers,                     !- Dry-Bulb Temperature Range Modifier Type
  ,                                       !- Dry-Bulb Temperature Range Modifier Schedule Name
  AshraeClearSky;                         !- Solar Model Indicator

OS:ScheduleTypeLimits,
  {d180813c-f8a4-4408-b3d5-54939a0d537e}, !- Handle
  Temperature,                            !- Name
  -60,                                    !- Lower Limit Value
  200,                                    !- Upper Limit Value
  CONTINUOUS,                             !- Numeric Type
  Temperature;                            !- Unit Type

OS:DefaultScheduleSet,
  {8b888ff9-6653-4276-815e-11169c14f129}, !- Handle
  Default Schedules,                      !- Name
  ,                                       !- Hours of Operation Schedule Name
  {14546b70-ba22-4228-8049-0cb2a7b26e51}, !- Number of People Schedule Name
  {cbc96f91-d0ba-4615-88b8-142be9712917}, !- People Activity Level Schedule Name
  {6f15f090-7814-4ad5-bf75-722978b8f1e2}, !- Lighting Schedule Name
  {e3a2478f-e5cd-404a-aea5-5cd95556286e}, !- Electric Equipment Schedule Name
  {2268b97a-5358-4ce1-9102-c2fe6cead831}, !- Gas Equipment Schedule Name
  {d2dc3482-3527-4058-9ee5-b7312c1f51cf}, !- Hot Water Equipment Schedule Name
  {f53712ab-2a20-438f-a806-ee2d646efd3d}, !- Infiltration Schedule Name
  ,                                       !- Steam Equipment Schedule Name
  ;                                       !- Other Equipment Schedule Name

OS:Schedule:Ruleset,
  {14546b70-ba22-4228-8049-0cb2a7b26e51}, !- Handle
  Medium Office Number of People Schedule, !- Name
  {5af3c063-bdea-4bef-96d8-f598d7c116bf}, !- Schedule Type Limits Name
  {4668171a-2bbb-4216-b516-2853922cc8a3}, !- Default Day Schedule Name
  {6d17bb90-a6c6-4c21-9fd9-38a36e4cc5c6}; !- Summer Design Day Schedule Name

OS:Schedule:Day,
  {4668171a-2bbb-4216-b516-2853922cc8a3}, !- Handle
  Medium Office Number of People All Other Days Schedule, !- Name
  {5af3c063-bdea-4bef-96d8-f598d7c116bf}, !- Schedule Type Limits Name
  ,                                       !- Interpolate to Timestep
  24,                                     !- Hour 1
  0,                                      !- Minute 1
  0;                                      !- Value Until Time 1

OS:Schedule:Day,
  {2cd30d55-4abe-4aad-8398-9a7d7936c1b8}, !- Handle
  Medium Office Number of People Summer Design Day Schedule, !- Name
  ,                                       !- Schedule Type Limits Name
  ,                                       !- Interpolate to Timestep
  6,                                      !- Hour 1
  0,                                      !- Minute 1
  0,                                      !- Value Until Time 1
  22,                                     !- Hour 2
  0,                                      !- Minute 2
  1,                                      !- Value Until Time 2
  24,                                     !- Hour 3
  0,                                      !- Minute 3
  0.05;                                   !- Value Until Time 3

OS:Schedule:Day,
  {6d17bb90-a6c6-4c21-9fd9-38a36e4cc5c6}, !- Handle
  Medium Office Number of People Summer Design Day Schedule 1, !- Name
  {5af3c063-bdea-4bef-96d8-f598d7c116bf}, !- Schedule Type Limits Name
  ,                                       !- Interpolate to Timestep
  6,                                      !- Hour 1
  0,                                      !- Minute 1
  0,                                      !- Value Until Time 1
  22,                                     !- Hour 2
  0,                                      !- Minute 2
  1,                                      !- Value Until Time 2
  24,                                     !- Hour 3
  0,                                      !- Minute 3
  0.05;                                   !- Value Until Time 3

OS:Schedule:Rule,
  {fa33843b-4ea3-4b54-94a1-68b949f6605c}, !- Handle
  Medium Office Number of People Schedule Weekdays Rule, !- Name
  {14546b70-ba22-4228-8049-0cb2a7b26e51}, !- Schedule Ruleset Name
  1,                                      !- Rule Order
  {c9bbbceb-2271-421d-8bba-700d0c91d3a0}, !- Day Schedule Name
  ,                                       !- Apply Sunday
  Yes,                                    !- Apply Monday
  Yes,                                    !- Apply Tuesday
  Yes,                                    !- Apply Wednesday
  Yes,                                    !- Apply Thursday
  Yes;                                    !- Apply Friday

OS:Schedule:Day,
  {c9bbbceb-2271-421d-8bba-700d0c91d3a0}, !- Handle
  Medium Office Number of People Weekdays Schedule, !- Name
  {5af3c063-bdea-4bef-96d8-f598d7c116bf}, !- Schedule Type Limits Name
  ,                                       !- Interpolate to Timestep
  6,                                      !- Hour 1
  0,                                      !- Minute 1
  0,                                      !- Value Until Time 1
  7,                                      !- Hour 2
  0,                                      !- Minute 2
  0.1,                                    !- Value Until Time 2
  8,                                      !- Hour 3
  0,                                      !- Minute 3
  0.2,                                    !- Value Until Time 3
  12,                                     !- Hour 4
  0,                                      !- Minute 4
  0.95,                                   !- Value Until Time 4
  13,                                     !- Hour 5
  0,                                      !- Minute 5
  0.5,                                    !- Value Until Time 5
  17,                                     !- Hour 6
  0,                                      !- Minute 6
  0.95,                                   !- Value Until Time 6
  18,                                     !- Hour 7
  0,                                      !- Minute 7
  0.7,                                    !- Value Until Time 7
  20,                                     !- Hour 8
  0,                                      !- Minute 8
  0.4,                                    !- Value Until Time 8
  22,                                     !- Hour 9
  0,                                      !- Minute 9
  0.1,                                    !- Value Until Time 9
  24,                                     !- Hour 10
  0,                                      !- Minute 10
  0.05;                                   !- Value Until Time 10

OS:Schedule:Rule,
  {b27c5050-8b04-48f0-a7cf-5004428cc184}, !- Handle
  Medium Office Number of People Schedule Saturday Rule, !- Name
  {14546b70-ba22-4228-8049-0cb2a7b26e51}, !- Schedule Ruleset Name
  0,                                      !- Rule Order
  {6d401719-78bc-4689-b63f-4ea6cfd58856}, !- Day Schedule Name
  ,                                       !- Apply Sunday
  ,                                       !- Apply Monday
  ,                                       !- Apply Tuesday
  ,                                       !- Apply Wednesday
  ,                                       !- Apply Thursday
  ,                                       !- Apply Friday
  Yes;                                    !- Apply Saturday

OS:Schedule:Day,
  {6d401719-78bc-4689-b63f-4ea6cfd58856}, !- Handle
  Medium Office Number of People Saturday Schedule, !- Name
  {5af3c063-bdea-4bef-96d8-f598d7c116bf}, !- Schedule Type Limits Name
  ,                                       !- Interpolate to Timestep
  6,                                      !- Hour 1
  0,                                      !- Minute 1
  0,                                      !- Value Until Time 1
  8,                                      !- Hour 2
  0,                                      !- Minute 2
  0.1,                                    !- Value Until Time 2
  14,                                     !- Hour 3
  0,                                      !- Minute 3
  0.5,                                    !- Value Until Time 3
  17,                                     !- Hour 4
  0,                                      !- Minute 4
  0.1,                                    !- Value Until Time 4
  24,                                     !- Hour 5
  0,                                      !- Minute 5
  0;                                      !- Value Until Time 5

OS:ScheduleTypeLimits,
  {5af3c063-bdea-4bef-96d8-f598d7c116bf}, !- Handle
  Fractional,                             !- Name
  0,                                      !- Lower Limit Value
  1,                                      !- Upper Limit Value
  Continuous;                             !- Numeric Type

OS:Schedule:Ruleset,
  {cbc96f91-d0ba-4615-88b8-142be9712917}, !- Handle
  Medium Office People Activity Level Schedule, !- Name
  {1e6bfa4d-c3ab-43f1-a46f-6f9094baf699}, !- Schedule Type Limits Name
  {253dffa1-5965-444e-ab72-e24a80ffc901}; !- Default Day Schedule Name

OS:Schedule:Day,
  {253dffa1-5965-444e-ab72-e24a80ffc901}, !- Handle
  Medium Office People Activity Level All Days Schedule, !- Name
  {1e6bfa4d-c3ab-43f1-a46f-6f9094baf699}, !- Schedule Type Limits Name
  ,                                       !- Interpolate to Timestep
  24,                                     !- Hour 1
  0,                                      !- Minute 1
  120;                                    !- Value Until Time 1

OS:ScheduleTypeLimits,
  {1e6bfa4d-c3ab-43f1-a46f-6f9094baf699}, !- Handle
  ActivityLevel,                          !- Name
  0,                                      !- Lower Limit Value
  ,                                       !- Upper Limit Value
  Continuous,                             !- Numeric Type
  ActivityLevel;                          !- Unit Type

OS:Schedule:Ruleset,
  {6f15f090-7814-4ad5-bf75-722978b8f1e2}, !- Handle
  Medium Office Lighting Schedule,        !- Name
  {5af3c063-bdea-4bef-96d8-f598d7c116bf}, !- Schedule Type Limits Name
  {893c33fe-09ee-4cdd-a23c-38b59fd02b7e}, !- Default Day Schedule Name
  {5119148f-6da5-41fe-8ba1-22ef4c556907}, !- Summer Design Day Schedule Name
  {c9a9be6a-db76-4bef-9e3b-b8e6f58f6c94}; !- Winter Design Day Schedule Name

OS:Schedule:Day,
  {893c33fe-09ee-4cdd-a23c-38b59fd02b7e}, !- Handle
  Medium Office Lighting All Other Days Schedule, !- Name
  {5af3c063-bdea-4bef-96d8-f598d7c116bf}, !- Schedule Type Limits Name
  ,                                       !- Interpolate to Timestep
  24,                                     !- Hour 1
  0,                                      !- Minute 1
  0.05;                                   !- Value Until Time 1

OS:Schedule:Day,
  {cc1da64f-bac5-4e76-8253-fa3f0b51bb73}, !- Handle
  Medium Office Lighting Summer Design Day Schedule, !- Name
  ,                                       !- Schedule Type Limits Name
  ,                                       !- Interpolate to Timestep
  6,                                      !- Hour 1
  0,                                      !- Minute 1
  1,                                      !- Value Until Time 1
  24,                                     !- Hour 2
  0,                                      !- Minute 2
  0;                                      !- Value Until Time 2

OS:Schedule:Day,
  {5119148f-6da5-41fe-8ba1-22ef4c556907}, !- Handle
  Medium Office Lighting Summer Design Day Schedule 1, !- Name
  {5af3c063-bdea-4bef-96d8-f598d7c116bf}, !- Schedule Type Limits Name
  ,                                       !- Interpolate to Timestep
  6,                                      !- Hour 1
  0,                                      !- Minute 1
  1,                                      !- Value Until Time 1
  24,                                     !- Hour 2
  0,                                      !- Minute 2
  0;                                      !- Value Until Time 2

OS:Schedule:Day,
  {0801ef1d-a1e1-4f44-9999-87976486e1d0}, !- Handle
  Medium Office Lighting Winter Design Day Schedule, !- Name
  ,                                       !- Schedule Type Limits Name
  ,                                       !- Interpolate to Timestep
  24,                                     !- Hour 1
  0,                                      !- Minute 1
  0;                                      !- Value Until Time 1

OS:Schedule:Day,
  {c9a9be6a-db76-4bef-9e3b-b8e6f58f6c94}, !- Handle
  Medium Office Lighting Winter Design Day Schedule 1, !- Name
  {5af3c063-bdea-4bef-96d8-f598d7c116bf}, !- Schedule Type Limits Name
  ,                                       !- Interpolate to Timestep
  24,                                     !- Hour 1
  0,                                      !- Minute 1
  0;                                      !- Value Until Time 1

OS:Schedule:Rule,
  {0bc86900-091a-4388-83af-a8342a2e49b6}, !- Handle
  Medium Office Lighting Schedule Weekdays Rule, !- Name
  {6f15f090-7814-4ad5-bf75-722978b8f1e2}, !- Schedule Ruleset Name
  1,                                      !- Rule Order
  {343fc431-01ac-4857-b47d-a2548367ad6b}, !- Day Schedule Name
  ,                                       !- Apply Sunday
  Yes,                                    !- Apply Monday
  Yes,                                    !- Apply Tuesday
  Yes,                                    !- Apply Wednesday
  Yes,                                    !- Apply Thursday
  Yes;                                    !- Apply Friday

OS:Schedule:Day,
  {343fc431-01ac-4857-b47d-a2548367ad6b}, !- Handle
  Medium Office Lighting Weekdays Schedule, !- Name
  {5af3c063-bdea-4bef-96d8-f598d7c116bf}, !- Schedule Type Limits Name
  ,                                       !- Interpolate to Timestep
  5,                                      !- Hour 1
  0,                                      !- Minute 1
  0.05,                                   !- Value Until Time 1
  7,                                      !- Hour 2
  0,                                      !- Minute 2
  0.1,                                    !- Value Until Time 2
  8,                                      !- Hour 3
  0,                                      !- Minute 3
  0.3,                                    !- Value Until Time 3
  17,                                     !- Hour 4
  0,                                      !- Minute 4
  0.9,                                    !- Value Until Time 4
  18,                                     !- Hour 5
  0,                                      !- Minute 5
  0.7,                                    !- Value Until Time 5
  20,                                     !- Hour 6
  0,                                      !- Minute 6
  0.5,                                    !- Value Until Time 6
  22,                                     !- Hour 7
  0,                                      !- Minute 7
  0.3,                                    !- Value Until Time 7
  23,                                     !- Hour 8
  0,                                      !- Minute 8
  0.1,                                    !- Value Until Time 8
  24,                                     !- Hour 9
  0,                                      !- Minute 9
  0.05;                                   !- Value Until Time 9

OS:Schedule:Rule,
  {bdb25a28-8b97-4912-92ae-9b12baad0a8d}, !- Handle
  Medium Office Lighting Schedule Saturday Rule, !- Name
  {6f15f090-7814-4ad5-bf75-722978b8f1e2}, !- Schedule Ruleset Name
  0,                                      !- Rule Order
  {f0862745-798d-4600-996a-0e2ec0fa9746}, !- Day Schedule Name
  ,                                       !- Apply Sunday
  ,                                       !- Apply Monday
  ,                                       !- Apply Tuesday
  ,                                       !- Apply Wednesday
  ,                                       !- Apply Thursday
  ,                                       !- Apply Friday
  Yes;                                    !- Apply Saturday

OS:Schedule:Day,
  {f0862745-798d-4600-996a-0e2ec0fa9746}, !- Handle
  Medium Office Lighting Saturday Schedule, !- Name
  {5af3c063-bdea-4bef-96d8-f598d7c116bf}, !- Schedule Type Limits Name
  ,                                       !- Interpolate to Timestep
  6,                                      !- Hour 1
  0,                                      !- Minute 1
  0.05,                                   !- Value Until Time 1
  8,                                      !- Hour 2
  0,                                      !- Minute 2
  0.1,                                    !- Value Until Time 2
  14,                                     !- Hour 3
  0,                                      !- Minute 3
  0.5,                                    !- Value Until Time 3
  17,                                     !- Hour 4
  0,                                      !- Minute 4
  0.15,                                   !- Value Until Time 4
  24,                                     !- Hour 5
  0,                                      !- Minute 5
  0.05;                                   !- Value Until Time 5

OS:Schedule:Ruleset,
  {e3a2478f-e5cd-404a-aea5-5cd95556286e}, !- Handle
  Medium Office Electric Equipment Schedule, !- Name
  {5af3c063-bdea-4bef-96d8-f598d7c116bf}, !- Schedule Type Limits Name
  {bcffa27d-e98f-428a-83ad-a4491c190174}, !- Default Day Schedule Name
  {ce0d507f-5ff1-4161-a827-3cdaef07b03b}, !- Summer Design Day Schedule Name
  {822efe26-ef46-478c-8539-e4c540236ebd}; !- Winter Design Day Schedule Name

OS:Schedule:Day,
  {bcffa27d-e98f-428a-83ad-a4491c190174}, !- Handle
  Medium Office Electric Equipment All Other Days Schedule, !- Name
  {5af3c063-bdea-4bef-96d8-f598d7c116bf}, !- Schedule Type Limits Name
  ,                                       !- Interpolate to Timestep
  24,                                     !- Hour 1
  0,                                      !- Minute 1
  0.3;                                    !- Value Until Time 1

OS:Schedule:Day,
  {8552b4a1-37ae-4010-b393-2d6298b4815a}, !- Handle
  Medium Office Electric Equipment Summer Design Day Schedule, !- Name
  ,                                       !- Schedule Type Limits Name
  ,                                       !- Interpolate to Timestep
  6,                                      !- Hour 1
  0,                                      !- Minute 1
  1,                                      !- Value Until Time 1
  24,                                     !- Hour 2
  0,                                      !- Minute 2
  0;                                      !- Value Until Time 2

OS:Schedule:Day,
  {ce0d507f-5ff1-4161-a827-3cdaef07b03b}, !- Handle
  Medium Office Electric Equipment Summer Design Day Schedule 1, !- Name
  {5af3c063-bdea-4bef-96d8-f598d7c116bf}, !- Schedule Type Limits Name
  ,                                       !- Interpolate to Timestep
  6,                                      !- Hour 1
  0,                                      !- Minute 1
  1,                                      !- Value Until Time 1
  24,                                     !- Hour 2
  0,                                      !- Minute 2
  0;                                      !- Value Until Time 2

OS:Schedule:Day,
  {280ee2a8-e2ba-4439-9207-207f2c97e9e0}, !- Handle
  Medium Office Electric Equipment Winter Design Day Schedule, !- Name
  ,                                       !- Schedule Type Limits Name
  ,                                       !- Interpolate to Timestep
  24,                                     !- Hour 1
  0,                                      !- Minute 1
  0;                                      !- Value Until Time 1

OS:Schedule:Day,
  {822efe26-ef46-478c-8539-e4c540236ebd}, !- Handle
  Medium Office Electric Equipment Winter Design Day Schedule 1, !- Name
  {5af3c063-bdea-4bef-96d8-f598d7c116bf}, !- Schedule Type Limits Name
  ,                                       !- Interpolate to Timestep
  24,                                     !- Hour 1
  0,                                      !- Minute 1
  0;                                      !- Value Until Time 1

OS:Schedule:Rule,
  {cc38ec0d-3a32-40f6-9ef9-f960d1d1c57d}, !- Handle
  Medium Office Electric Equipment Schedule Weekdays Rule, !- Name
  {e3a2478f-e5cd-404a-aea5-5cd95556286e}, !- Schedule Ruleset Name
  1,                                      !- Rule Order
  {cd9bf5e5-e16d-4def-9263-08535b05b4d1}, !- Day Schedule Name
  ,                                       !- Apply Sunday
  Yes,                                    !- Apply Monday
  Yes,                                    !- Apply Tuesday
  Yes,                                    !- Apply Wednesday
  Yes,                                    !- Apply Thursday
  Yes;                                    !- Apply Friday

OS:Schedule:Day,
  {cd9bf5e5-e16d-4def-9263-08535b05b4d1}, !- Handle
  Medium Office Electric Equipment Weekdays Schedule, !- Name
  {5af3c063-bdea-4bef-96d8-f598d7c116bf}, !- Schedule Type Limits Name
  ,                                       !- Interpolate to Timestep
  8,                                      !- Hour 1
  0,                                      !- Minute 1
  0.4,                                    !- Value Until Time 1
  12,                                     !- Hour 2
  0,                                      !- Minute 2
  0.9,                                    !- Value Until Time 2
  13,                                     !- Hour 3
  0,                                      !- Minute 3
  0.8,                                    !- Value Until Time 3
  17,                                     !- Hour 4
  0,                                      !- Minute 4
  0.9,                                    !- Value Until Time 4
  18,                                     !- Hour 5
  0,                                      !- Minute 5
  0.8,                                    !- Value Until Time 5
  20,                                     !- Hour 6