
OS:Version,
  {0ae38bda-bacb-4c2d-a571-8de3a0c77f97}, !- Handle
  1.13.0;                                 !- Version Identifier

OS:Schedule:Ruleset,
  {7b028c85-1c21-4f9f-bc79-9b4c818610f0}, !- Handle
  Always_On,                              !- Name
  {1273f002-b7e4-4b36-810e-b921202465f6}, !- Schedule Type Limits Name
  {c08f18a5-8644-46d2-9189-188b0b562455}, !- Default Day Schedule Name
  {80bd09dd-91b1-4c3f-aa88-8d1a54011c51}, !- Summer Design Day Schedule Name
  {037a5a5e-3038-41e5-9c68-b40f38919dd8}; !- Winter Design Day Schedule Name

OS:Schedule:Day,
  {c08f18a5-8644-46d2-9189-188b0b562455}, !- Handle
  Always_On_Default,                      !- Name
  {1273f002-b7e4-4b36-810e-b921202465f6}, !- Schedule Type Limits Name
  ,                                       !- Interpolate to Timestep
  24,                                     !- Hour 1
  0,                                      !- Minute 1
  1;                                      !- Value Until Time 1

OS:Schedule:Day,
  {037a5a5e-3038-41e5-9c68-b40f38919dd8}, !- Handle
  Always_On_Winter_Design_Day,            !- Name
  {1273f002-b7e4-4b36-810e-b921202465f6}, !- Schedule Type Limits Name
  ,                                       !- Interpolate to Timestep
  24,                                     !- Hour 1
  0,                                      !- Minute 1
  1;                                      !- Value Until Time 1

OS:Schedule:Day,
  {80bd09dd-91b1-4c3f-aa88-8d1a54011c51}, !- Handle
  Always_On_Summer_Design_Day,            !- Name
  {1273f002-b7e4-4b36-810e-b921202465f6}, !- Schedule Type Limits Name
  ,                                       !- Interpolate to Timestep
  24,                                     !- Hour 1
  0,                                      !- Minute 1
  1;                                      !- Value Until Time 1

OS:Construction,
  {7c751837-7b13-405b-bd83-8eda70d52b3f}, !- Handle
  INT-FLOOR-TOPSIDE,                      !- Name
  ,                                       !- Surface Rendering Name
  {11b8550c-087b-42a4-a7a5-5036e13111f0}, !- Layer 1
  {37a55c36-eee8-4297-981a-d76d447b294c}, !- Layer 2
  {cc640fb7-2d38-4729-824b-27e972d805d6}; !- Layer 3

OS:Material,
  {11b8550c-087b-42a4-a7a5-5036e13111f0}, !- Handle
  1/2IN Gypsum,                           !- Name
  Smooth,                                 !- Roughness
  0.0127,                                 !- Thickness {m}
  0.1600,                                 !- Conductivity {W/m-K}
  784.9000,                               !- Density {kg/m3}
  830.0000,                               !- Specific Heat {J/kg-K}
  0.9000,                                 !- Thermal Absorptance
  0.9200,                                 !- Solar Absorptance
  0.9200;                                 !- Visible Absorptance

OS:Material,
  {37a55c36-eee8-4297-981a-d76d447b294c}, !- Handle
  4IN CONCRETE HW,                        !- Name
  Rough,                                  !- Roughness
  0.1016,                                 !- Thickness {m}
  1.3110,                                 !- Conductivity {W/m-K}
  2240.0000,                              !- Density {kg/m3}
  836.8000,                               !- Specific Heat {J/kg-K}
  0.9000,                                 !- Thermal Absorptance
  0.7000,                                 !- Solar Absorptance
  0.7000;                                 !- Visible Absorptance

OS:Material:NoMass,
  {cc640fb7-2d38-4729-824b-27e972d805d6}, !- Handle
  CP02 CARPET PAD,                        !- Name
  VeryRough,                              !- Roughness
  0.2165,                                 !- Thermal Resistance {m2-K/W}
  0.9000,                                 !- Thermal Absorptance
  0.7000,                                 !- Solar Absorptance
  0.8000;                                 !- Visible Absorptance

OS:StandardsInformation:Construction,
  {23b857ea-59e6-4497-8c82-ed0dfa0d5df3}, !- Handle
  {7c751837-7b13-405b-bd83-8eda70d52b3f}, ! Construction Name
  ,                                       ! Intended Surface Type
  Mass,                                   ! Construction Type
  0,                                      ! Perturbable Layer
  Insulation,                             ! Perturbable Layer Type
  ;                                       ! Other Perturbable Layer Type

OS:Construction,
  {dca6dd7a-2c25-4f42-83d8-73e33665eb85}, !- Handle
  INT-FLOOR-UNDERSIDE,                    !- Name
  ,                                       !- Surface Rendering Name
  {cc640fb7-2d38-4729-824b-27e972d805d6}, !- Layer 1
  {37a55c36-eee8-4297-981a-d76d447b294c}, !- Layer 2
  {11b8550c-087b-42a4-a7a5-5036e13111f0}; !- Layer 3

OS:StandardsInformation:Construction,
  {b9287734-ab41-4a79-91e2-c52bb7461f0a}, !- Handle
  {dca6dd7a-2c25-4f42-83d8-73e33665eb85}, ! Construction Name
  ,                                       ! Intended Surface Type
  Mass,                                   ! Construction Type
  1,                                      ! Perturbable Layer
  Insulation,                             ! Perturbable Layer Type
  ;                                       ! Other Perturbable Layer Type

OS:Construction,
  {e1f696e4-6122-427a-b137-fe8b0f59cf35}, !- Handle
  Standard_Int-Wall,                      !- Name
  ,                                       !- Surface Rendering Name
  {11b8550c-087b-42a4-a7a5-5036e13111f0}, !- Layer 1
  {11b8550c-087b-42a4-a7a5-5036e13111f0}; !- Layer 2

OS:StandardsInformation:Construction,
  {ca44c75e-9b9a-4a9f-acd5-f4ce69f8e0a6}, !- Handle
  {e1f696e4-6122-427a-b137-fe8b0f59cf35}, ! Construction Name
  ,                                       ! Intended Surface Type
  Mass,                                   ! Construction Type
  0,                                      ! Perturbable Layer
  Insulation,                             ! Perturbable Layer Type
  ;                                       ! Other Perturbable Layer Type

OS:DefaultSurfaceConstructions,
  {47858fa7-bad3-4d7e-a5c6-ab3b3e8b7019}, !- Handle
  Default Surface Constructions 1,        !- Name
  {7c751837-7b13-405b-bd83-8eda70d52b3f}, !- Floor Construction Name
  {e1f696e4-6122-427a-b137-fe8b0f59cf35}, !- Wall Construction Name
  {dca6dd7a-2c25-4f42-83d8-73e33665eb85}; !- Roof Ceiling Construction Name

OS:DefaultConstructionSet,
  {6b854c4d-ae79-4eb9-9e1f-0e5550a24004}, !- Handle
  Default Construction Set 1,             !- Name
  ,                                       !- Default Exterior Surface Constructions Name
  {47858fa7-bad3-4d7e-a5c6-ab3b3e8b7019}, !- Default Interior Surface Constructions Name
  ,                                       !- Default Ground Contact Surface Constructions Name
  ,                                       !- Default Exterior SubSurface Constructions Name
  ,                                       !- Default Interior SubSurface Constructions Name
  ,                                       !- Interior Partition Construction Name
  ,                                       !- Space Shading Construction Name
  ,                                       !- Building Shading Construction Name
  ;                                       !- Site Shading Construction Name

OS:Building,
  {eef9dc36-d688-4c26-b878-49787fda1c7d}, !- Handle
  HighRise_Apt_2004,                      !- Name
  ,                                       !- Building Sector Type
  104.903354966082,                       !- North Axis {deg}
  ,                                       !- Nominal Floor to Floor Height {m}
  ,                                       !- Space Type Name
  {6b854c4d-ae79-4eb9-9e1f-0e5550a24004}, !- Default Construction Set Name
  ;                                       !- Default Schedule Set Name

OS:Schedule:Ruleset,
  {d45d90c4-dce0-4ed4-9c38-cfb5916aba4b}, !- Handle
  PNNL_Asset_Rating_Apartment_Hvac_Schedule, !- Name
  {1273f002-b7e4-4b36-810e-b921202465f6}, !- Schedule Type Limits Name
  {f04d6996-2762-4918-bd05-574f1ba48edd}, !- Default Day Schedule Name
  {c2650294-84d2-4cf0-8818-38b5746a780d}, !- Summer Design Day Schedule Name
  {6c060c56-1d00-4fdd-912a-692971988f98}; !- Winter Design Day Schedule Name

OS:Schedule:Day,
  {f04d6996-2762-4918-bd05-574f1ba48edd}, !- Handle
  PNNL_Asset_Rating_Apartment_Hvac_Schedule_Week_Day, !- Name
  {1273f002-b7e4-4b36-810e-b921202465f6}, !- Schedule Type Limits Name
  ,                                       !- Interpolate to Timestep
  1,                                      !- Hour 1
  0,                                      !- Minute 1
  1,                                      !- Value Until Time 1
  2,                                      !- Hour 2
  0,                                      !- Minute 2
  1,                                      !- Value Until Time 2
  3,                                      !- Hour 3
  0,                                      !- Minute 3
  1,                                      !- Value Until Time 3
  4,                                      !- Hour 4
  0,                                      !- Minute 4
  1,                                      !- Value Until Time 4
  5,                                      !- Hour 5
  0,                                      !- Minute 5
  1,                                      !- Value Until Time 5
  6,                                      !- Hour 6
  0,                                      !- Minute 6
  1,                                      !- Value Until Time 6
  7,                                      !- Hour 7
  0,                                      !- Minute 7
  1,                                      !- Value Until Time 7
  8,                                      !- Hour 8
  0,                                      !- Minute 8
  1,                                      !- Value Until Time 8
  9,                                      !- Hour 9
  0,                                      !- Minute 9
  1,                                      !- Value Until Time 9
  10,                                     !- Hour 10
  0,                                      !- Minute 10
  1,                                      !- Value Until Time 10
  11,                                     !- Hour 11
  0,                                      !- Minute 11
  1,                                      !- Value Until Time 11
  12,                                     !- Hour 12
  0,                                      !- Minute 12
  1,                                      !- Value Until Time 12
  13,                                     !- Hour 13
  0,                                      !- Minute 13
  1,                                      !- Value Until Time 13
  14,                                     !- Hour 14
  0,                                      !- Minute 14
  1,                                      !- Value Until Time 14
  15,                                     !- Hour 15
  0,                                      !- Minute 15
  1,                                      !- Value Until Time 15
  16,                                     !- Hour 16
  0,                                      !- Minute 16
  1,                                      !- Value Until Time 16
  17,                                     !- Hour 17
  0,                                      !- Minute 17
  1,                                      !- Value Until Time 17
  18,                                     !- Hour 18
  0,                                      !- Minute 18
  1,                                      !- Value Until Time 18
  19,                                     !- Hour 19
  0,                                      !- Minute 19
  1,                                      !- Value Until Time 19
  20,                                     !- Hour 20
  0,                                      !- Minute 20
  1,                                      !- Value Until Time 20
  21,                                     !- Hour 21
  0,                                      !- Minute 21
  1,                                      !- Value Until Time 21
  22,                                     !- Hour 22
  0,                                      !- Minute 22
  1,                                      !- Value Until Time 22
  23,                                     !- Hour 23
  0,                                      !- Minute 23
  1,                                      !- Value Until Time 23
  24,                                     !- Hour 24
  0,                                      !- Minute 24
  1;                                      !- Value Until Time 24

OS:Schedule:Day,
  {c2650294-84d2-4cf0-8818-38b5746a780d}, !- Handle
  PNNL_Asset_Rating_Apartment_Hvac_Schedule_Summer_Design_Day, !- Name
  {1273f002-b7e4-4b36-810e-b921202465f6}, !- Schedule Type Limits Name
  ,                                       !- Interpolate to Timestep
  1,                                      !- Hour 1
  0,                                      !- Minute 1
  1,                                      !- Value Until Time 1
  2,                                      !- Hour 2
  0,                                      !- Minute 2
  1,                                      !- Value Until Time 2
  3,                                      !- Hour 3
  0,                                      !- Minute 3
  1,                                      !- Value Until Time 3
  4,                                      !- Hour 4
  0,                                      !- Minute 4
  1,                                      !- Value Until Time 4
  5,                                      !- Hour 5
  0,                                      !- Minute 5
  1,                                      !- Value Until Time 5
  6,                                      !- Hour 6
  0,                                      !- Minute 6
  1,                                      !- Value Until Time 6
  7,                                      !- Hour 7
  0,                                      !- Minute 7
  1,                                      !- Value Until Time 7
  8,                                      !- Hour 8
  0,                                      !- Minute 8
  1,                                      !- Value Until Time 8
  9,                                      !- Hour 9
  0,                                      !- Minute 9
  1,                                      !- Value Until Time 9
  10,                                     !- Hour 10
  0,                                      !- Minute 10
  1,                                      !- Value Until Time 10
  11,                                     !- Hour 11
  0,                                      !- Minute 11
  1,                                      !- Value Until Time 11
  12,                                     !- Hour 12
  0,                                      !- Minute 12
  1,                                      !- Value Until Time 12
  13,                                     !- Hour 13
  0,                                      !- Minute 13
  1,                                      !- Value Until Time 13
  14,                                     !- Hour 14
  0,                                      !- Minute 14
  1,                                      !- Value Until Time 14
  15,                                     !- Hour 15
  0,                                      !- Minute 15
  1,                                      !- Value Until Time 15
  16,                                     !- Hour 16
  0,                                      !- Minute 16
  1,                                      !- Value Until Time 16
  17,                                     !- Hour 17
  0,                                      !- Minute 17
  1,                                      !- Value Until Time 17
  18,                                     !- Hour 18
  0,                                      !- Minute 18
  1,                                      !- Value Until Time 18
  19,                                     !- Hour 19
  0,                                      !- Minute 19
  1,                                      !- Value Until Time 19
  20,                                     !- Hour 20
  0,                                      !- Minute 20
  1,                                      !- Value Until Time 20
  21,                                     !- Hour 21
  0,                                      !- Minute 21
  1,                                      !- Value Until Time 21
  22,                                     !- Hour 22
  0,                                      !- Minute 22
  1,                                      !- Value Until Time 22
  23,                                     !- Hour 23
  0,                                      !- Minute 23
  1,                                      !- Value Until Time 23
  24,                                     !- Hour 24
  0,                                      !- Minute 24
  1;                                      !- Value Until Time 24

OS:Schedule:Day,
  {6c060c56-1d00-4fdd-912a-692971988f98}, !- Handle
  PNNL_Asset_Rating_Apartment_Hvac_Schedule_Winter_Design_Day, !- Name
  {1273f002-b7e4-4b36-810e-b921202465f6}, !- Schedule Type Limits Name
  ,                                       !- Interpolate to Timestep
  1,                                      !- Hour 1
  0,                                      !- Minute 1
  1,                                      !- Value Until Time 1
  2,                                      !- Hour 2
  0,                                      !- Minute 2
  1,                                      !- Value Until Time 2
  3,                                      !- Hour 3
  0,                                      !- Minute 3
  1,                                      !- Value Until Time 3
  4,                                      !- Hour 4
  0,                                      !- Minute 4
  1,                                      !- Value Until Time 4
  5,                                      !- Hour 5
  0,                                      !- Minute 5
  1,                                      !- Value Until Time 5
  6,                                      !- Hour 6
  0,                                      !- Minute 6
  1,                                      !- Value Until Time 6
  7,                                      !- Hour 7
  0,                                      !- Minute 7
  1,                                      !- Value Until Time 7
  8,                                      !- Hour 8
  0,                                      !- Minute 8
  1,                                      !- Value Until Time 8
  9,                                      !- Hour 9
  0,                                      !- Minute 9
  1,                                      !- Value Until Time 9
  10,                                     !- Hour 10
  0,                                      !- Minute 10
  1,                                      !- Value Until Time 10
  11,                                     !- Hour 11
  0,                                      !- Minute 11
  1,                                      !- Value Until Time 11
  12,                                     !- Hour 12
  0,                                      !- Minute 12
  1,                                      !- Value Until Time 12
  13,                                     !- Hour 13
  0,                                      !- Minute 13
  1,                                      !- Value Until Time 13
  14,                                     !- Hour 14
  0,                                      !- Minute 14
  1,                                      !- Value Until Time 14
  15,                                     !- Hour 15
  0,                                      !- Minute 15
  1,                                      !- Value Until Time 15
  16,                                     !- Hour 16
  0,                                      !- Minute 16
  1,                                      !- Value Until Time 16
  17,                                     !- Hour 17
  0,                                      !- Minute 17
  1,                                      !- Value Until Time 17
  18,                                     !- Hour 18
  0,                                      !- Minute 18
  1,                                      !- Value Until Time 18
  19,                                     !- Hour 19
  0,                                      !- Minute 19
  1,                                      !- Value Until Time 19
  20,                                     !- Hour 20
  0,                                      !- Minute 20
  1,                                      !- Value Until Time 20
  21,                                     !- Hour 21
  0,                                      !- Minute 21
  1,                                      !- Value Until Time 21
  22,                                     !- Hour 22
  0,                                      !- Minute 22
  1,                                      !- Value Until Time 22
  23,                                     !- Hour 23
  0,                                      !- Minute 23
  1,                                      !- Value Until Time 23
  24,                                     !- Hour 24
  0,                                      !- Minute 24
  1;                                      !- Value Until Time 24

OS:Schedule:Rule,
  {eb63459b-4f67-4299-9507-6d3a878a055b}, !- Handle
  PNNL_Asset_Rating_Apartment_Hvac_Schedule_Sunday_Rule, !- Name
  {d45d90c4-dce0-4ed4-9c38-cfb5916aba4b}, !- Schedule Ruleset Name
  0,                                      !- Rule Order
  {f72e66fc-e9aa-4980-9c9d-9386529cab5b}, !- Day Schedule Name
  Yes;                                    !- Apply Sunday

OS:Schedule:Day,
  {f72e66fc-e9aa-4980-9c9d-9386529cab5b}, !- Handle
  PNNL_Asset_Rating_Apartment_Hvac_Schedule_Sunday, !- Name
  {1273f002-b7e4-4b36-810e-b921202465f6}, !- Schedule Type Limits Name
  ,                                       !- Interpolate to Timestep
  1,                                      !- Hour 1
  0,                                      !- Minute 1
  1,                                      !- Value Until Time 1
  2,                                      !- Hour 2
  0,                                      !- Minute 2
  1,                                      !- Value Until Time 2
  3,                                      !- Hour 3
  0,                                      !- Minute 3
  1,                                      !- Value Until Time 3
  4,                                      !- Hour 4
  0,                                      !- Minute 4
  1,                                      !- Value Until Time 4
  5,                                      !- Hour 5
  0,                                      !- Minute 5
  1,                                      !- Value Until Time 5
  6,                                      !- Hour 6
  0,                                      !- Minute 6
  1,                                      !- Value Until Time 6
  7,                                      !- Hour 7
  0,                                      !- Minute 7
  1,                                      !- Value Until Time 7
  8,                                      !- Hour 8
  0,                                      !- Minute 8
  1,                                      !- Value Until Time 8
  9,                                      !- Hour 9
  0,                                      !- Minute 9
  1,                                      !- Value Until Time 9
  10,                                     !- Hour 10
  0,                                      !- Minute 10
  1,                                      !- Value Until Time 10
  11,                                     !- Hour 11
  0,                                      !- Minute 11
  1,                                      !- Value Until Time 11
  12,                                     !- Hour 12
  0,                                      !- Minute 12
  1,                                      !- Value Until Time 12
  13,                                     !- Hour 13
  0,                                      !- Minute 13
  1,                                      !- Value Until Time 13
  14,                                     !- Hour 14
  0,                                      !- Minute 14
  1,                                      !- Value Until Time 14
  15,                                     !- Hour 15
  0,                                      !- Minute 15
  1,                                      !- Value Until Time 15
  16,                                     !- Hour 16
  0,                                      !- Minute 16
  1,                                      !- Value Until Time 16
  17,                                     !- Hour 17
  0,                                      !- Minute 17
  1,                                      !- Value Until Time 17
  18,                                     !- Hour 18
  0,                                      !- Minute 18
  1,                                      !- Value Until Time 18
  19,                                     !- Hour 19
  0,                                      !- Minute 19
  1,                                      !- Value Until Time 19
  20,                                     !- Hour 20
  0,                                      !- Minute 20
  1,                                      !- Value Until Time 20
  21,                                     !- Hour 21
  0,                                      !- Minute 21
  1,                                      !- Value Until Time 21
  22,                                     !- Hour 22
  0,                                      !- Minute 22
  1,                                      !- Value Until Time 22
  23,                                     !- Hour 23
  0,                                      !- Minute 23
  1,                                      !- Value Until Time 23
  24,                                     !- Hour 24
  0,                                      !- Minute 24
  1;                                      !- Value Until Time 24

OS:Schedule:Rule,
  {c056d4cf-e0ef-4f9a-a008-57deacb23513}, !- Handle
  PNNL_Asset_Rating_Apartment_Hvac_Schedule_Saturday_Rule, !- Name
  {d45d90c4-dce0-4ed4-9c38-cfb5916aba4b}, !- Schedule Ruleset Name
  1,                                      !- Rule Order
  {4f839d0c-9e6b-4c4a-a8cd-4be6667c0fce}, !- Day Schedule Name
  ,                                       !- Apply Sunday
  ,                                       !- Apply Monday
  ,                                       !- Apply Tuesday
  ,                                       !- Apply Wednesday
  ,                                       !- Apply Thursday
  ,                                       !- Apply Friday
  Yes;                                    !- Apply Saturday

OS:Schedule:Day,
  {4f839d0c-9e6b-4c4a-a8cd-4be6667c0fce}, !- Handle
  PNNL_Asset_Rating_Apartment_Hvac_Schedule_Saturday, !- Name
  {1273f002-b7e4-4b36-810e-b921202465f6}, !- Schedule Type Limits Name
  ,                                       !- Interpolate to Timestep
  1,                                      !- Hour 1
  0,                                      !- Minute 1
  1,                                      !- Value Until Time 1
  2,                                      !- Hour 2
  0,                                      !- Minute 2
  1,                                      !- Value Until Time 2
  3,                                      !- Hour 3
  0,                                      !- Minute 3
  1,                                      !- Value Until Time 3
  4,                                      !- Hour 4
  0,                                      !- Minute 4
  1,                                      !- Value Until Time 4
  5,                                      !- Hour 5
  0,                                      !- Minute 5
  1,                                      !- Value Until Time 5
  6,                                      !- Hour 6
  0,                                      !- Minute 6
  1,                                      !- Value Until Time 6
  7,                                      !- Hour 7
  0,                                      !- Minute 7
  1,                                      !- Value Until Time 7
  8,                                      !- Hour 8
  0,                                      !- Minute 8
  1,                                      !- Value Until Time 8
  9,                                      !- Hour 9
  0,                                      !- Minute 9
  1,                                      !- Value Until Time 9
  10,                                     !- Hour 10
  0,                                      !- Minute 10
  1,                                      !- Value Until Time 10
  11,                                     !- Hour 11
  0,                                      !- Minute 11
  1,                                      !- Value Until Time 11
  12,                                     !- Hour 12
  0,                                      !- Minute 12
  1,                                      !- Value Until Time 12
  13,                                     !- Hour 13
  0,                                      !- Minute 13
  1,                                      !- Value Until Time 13
  14,                                     !- Hour 14
  0,                                      !- Minute 14
  1,                                      !- Value Until Time 14
  15,                                     !- Hour 15
  0,                                      !- Minute 15
  1,                                      !- Value Until Time 15
  16,                                     !- Hour 16
  0,                                      !- Minute 16
  1,                                      !- Value Until Time 16
  17,                                     !- Hour 17