
OS:Version,
  {7d8262d9-98cf-4155-b91e-dcc3a416a8f2}, !- Handle
  1.2.1;                                  !- Version Identifier

OS:SimulationControl,
  {e694805a-3bbc-41a5-924c-576be3dd4c4f}, !- Handle
  Yes,                                    !- Do Zone Sizing Calculation
  Yes,                                    !- Do System Sizing Calculation
  ,                                       !- Do Plant Sizing Calculation
  No,                                     !- Run Simulation for Sizing Periods
  Yes;                                    !- Run Simulation for Weather File Run Periods

OS:Timestep,
  {f0a6eea0-9186-482b-baa4-ea77227d4ff0}, !- Handle
  6;                                      !- Number of Timesteps per Hour

OS:RunPeriod,
  {012a0648-1970-4bca-900a-2f1543461362}, !- Handle
  Run Period 1,                           !- Name
  1,                                      !- Begin Month
  1,                                      !- Begin Day of Month
  12,                                     !- End Month
  31,                                     !- End Day of Month
  No,                                     !- Use Weather File Holidays and Special Days
  No,                                     !- Use Weather File Daylight Saving Period
  No,                                     !- Apply Weekend Holiday Rule
  Yes,                                    !- Use Weather File Rain Indicators
  Yes,                                    !- Use Weather File Snow Indicators
  1;                                      !- Number of Times Runperiod to be Repeated

OS:SurfaceConvectionAlgorithm:Inside,
  {e63e76e5-8f53-45d7-950d-c277cf343c77}, !- Handle
  TARP;                                   !- Algorithm

OS:SurfaceConvectionAlgorithm:Outside,
  {ca812359-f77c-4b62-a900-23b56da453aa}, !- Handle
  DOE-2;                                  !- Algorithm

OS:HeatBalanceAlgorithm,
  {025c9c4c-9f3f-46ac-8f40-01398badcaad}, !- Handle
  ConductionTransferFunction,             !- Algorithm
  200;                                    !- Surface Temperature Upper Limit {F}

OS:ZoneAirHeatBalanceAlgorithm,
  {1c521a04-2eb0-48fc-9c09-53e51b21cb5d}, !- Handle
  AnalyticalSolution;                     !- Algorithm

OS:ConvergenceLimits,
  {b873baca-c355-41ac-8d19-df1b0e9bc125}; !- Handle

OS:ShadowCalculation,
  {708ecfc3-bba6-4724-be49-17ded57e35cb}, !- Handle
  7,                                      !- Calculation Frequency
  15000;                                  !- Maximum Figures in Shadow Overlap Calculations

OS:Site,
  {e980aa56-a376-4bc3-9ece-551b5af0686b}, !- Handle
  Site 1,                                 !- Name
  41.77,                                  !- Latitude {deg}
  -87.75,                                 !- Longitude {deg}
  -6,                                     !- Time Zone {hr}
  190,                                    !- Elevation {m}
  ;                                       !- Terrain

OS:Site:GroundTemperature:BuildingSurface,
  {a8ee31d5-fa54-4163-b1cc-dd39ff0c109d}, !- Handle
  19.527,                                 !- January Ground Temperature {C}
  19.502,                                 !- February Ground Temperature {C}
  19.536,                                 !- March Ground Temperature {C}
  19.598,                                 !- April Ground Temperature {C}
  20.002,                                 !- May Ground Temperature {C}
  21.64,                                  !- June Ground Temperature {C}
  22.225,                                 !- July Ground Temperature {C}
  22.375,                                 !- August Ground Temperature {C}
  21.449,                                 !- September Ground Temperature {C}
  20.121,                                 !- October Ground Temperature {C}
  19.802,                                 !- November Ground Temperature {C}
  19.633;                                 !- December Ground Temperature {C}

OS:Site:WaterMainsTemperature,
  {41859501-a2ca-4cd6-8b6e-9ac8f5763dbf}, !- Handle
  Correlation,                            !- Calculation Method
  ,                                       !- Temperature Schedule Name
  9.69,                                   !- Annual Average Outdoor Air Temperature {C}
  28.1;                                   !- Maximum Difference In Monthly Average Outdoor Air Temperatures {deltaC}

OS:SizingPeriod:DesignDay,
  {e3f483e1-c441-48aa-94cc-7b9f48eb50ae}, !- Handle
  Sizing Period Design Day 1,             !- Name
  -20.6,                                  !- Maximum Dry-Bulb Temperature {C}
  0,                                      !- Daily Dry-Bulb Temperature Range {deltaC}
  -20.6,                                  !- Humidity Indicating Conditions at Maximum Dry-Bulb {BasedOnField A3}
  99063,                                  !- Barometric Pressure {Pa}
  4.9,                                    !- Wind Speed {m/s}
  270,                                    !- Wind Direction {deg}
  0,                                      !- Sky Clearness
  0,                                      !- Rain Indicator
  0,                                      !- Snow Indicator
  21,                                     !- Day of Month
  1,                                      !- Month
  WinterDesignDay,                        !- Day Type
  0,                                      !- Daylight Saving Time Indicator
  WetBulb,                                !- Humidity Indicating Type
  ,                                       !- Humidity Indicating Day Schedule Name
  DefaultMultipliers,                     !- Dry-Bulb Temperature Range Modifier Type
  ,                                       !- Dry-Bulb Temperature Range Modifier Schedule Name
  AshraeClearSky;                         !- Solar Model Indicator

OS:SizingPeriod:DesignDay,
  {da9f1f8e-dc3b-4f59-bf03-5d1713558ce9}, !- Handle
  Sizing Period Design Day 2,             !- Name
  33.2,                                   !- Maximum Dry-Bulb Temperature {C}
  10.7,                                   !- Daily Dry-Bulb Temperature Range {deltaC}
  23.8,                                   !- Humidity Indicating Conditions at Maximum Dry-Bulb {BasedOnField A3}
  99063,                                  !- Barometric Pressure {Pa}
  5.3,                                    !- Wind Speed {m/s}
  230,                                    !- Wind Direction {deg}
  1,                                      !- Sky Clearness
  0,                                      !- Rain Indicator
  0,                                      !- Snow Indicator
  21,                                     !- Day of Month
  7,                                      !- Month
  SummerDesignDay,                        !- Day Type
  0,                                      !- Daylight Saving Time Indicator
  WetBulb,                                !- Humidity Indicating Type
  ,                                       !- Humidity Indicating Day Schedule Name
  DefaultMultipliers,                     !- Dry-Bulb Temperature Range Modifier Type
  ,                                       !- Dry-Bulb Temperature Range Modifier Schedule Name
  AshraeClearSky;                         !- Solar Model Indicator

OS:ScheduleTypeLimits,
  {532c2145-94a1-4bda-b535-e71f130b7770}, !- Handle
  Temperature,                            !- Name
  -60,                                    !- Lower Limit Value {BasedOnField A4}
  200,                                    !- Upper Limit Value {BasedOnField A4}
  CONTINUOUS,                             !- Numeric Type
  Temperature;                            !- Unit Type

OS:DefaultScheduleSet,
  {f41a7482-23c4-46b7-a8ca-b79cb83c14ca}, !- Handle
  Default Schedules,                      !- Name
  ,                                       !- Hours of Operation Schedule Name
  {3f804e31-1721-4925-8736-d5dc1e1f6baa}, !- Number of People Schedule Name
  {2ae0ec18-e1b2-42a6-93ba-2bc485e91ae8}, !- People Activity Level Schedule Name
  {e13ecc65-0902-484f-a788-ffd8ac123258}, !- Lighting Schedule Name
  {557276b7-34b0-43b9-9e79-455cbb820dd3}, !- Electric Equipment Schedule Name
  {205fe9cb-4478-4b12-9289-806cbc1765f9}, !- Gas Equipment Schedule Name
  {e5b8c9af-4219-45e8-94e1-1db6677b6756}, !- Hot Water Equipment Schedule Name
  {65c86d4e-caf1-4053-b47e-6250eca9304f}, !- Infiltration Schedule Name
  ,                                       !- Steam Equipment Schedule Name
  ;                                       !- Other Equipment Schedule Name

OS:Schedule:Ruleset,
  {3f804e31-1721-4925-8736-d5dc1e1f6baa}, !- Handle
  Medium Office Number of People Schedule, !- Name
  {f3c763c7-58eb-4973-bba9-57b7a4065aad}, !- Schedule Type Limits Name
  {57f7b03c-dc3f-49d4-b091-e542817a94fc}, !- Default Day Schedule Name
  {ad5b9b5e-2382-40b9-902b-66cc00eb369a}; !- Summer Design Day Schedule Name

OS:Schedule:Day,
  {57f7b03c-dc3f-49d4-b091-e542817a94fc}, !- Handle
  Medium Office Number of People All Other Days Schedule, !- Name
  {f3c763c7-58eb-4973-bba9-57b7a4065aad}, !- Schedule Type Limits Name
  ,                                       !- Interpolate to Timestep
  24,                                     !- Hour 1
  0,                                      !- Minute 1
  0;                                      !- Value Until Time 1

OS:Schedule:Day,
  {e4bc91ce-b95e-4140-b0d7-6d750ffc98e6}, !- Handle
  Medium Office Number of People Summer Design Day Schedule, !- Name
  ,                                       !- Schedule Type Limits Name
  ,                                       !- Interpolate to Timestep
  6,                                      !- Hour 1
  0,                                      !- Minute 1
  0,                                      !- Value Until Time 1
  22,                                     !- Hour 2
  0,                                      !- Minute 2
  1,                                      !- Value Until Time 2
  24,                                     !- Hour 3
  0,                                      !- Minute 3
  0.05;                                   !- Value Until Time 3

OS:Schedule:Day,
  {ad5b9b5e-2382-40b9-902b-66cc00eb369a}, !- Handle
  Medium Office Number of People Summer Design Day Schedule 1, !- Name
  {f3c763c7-58eb-4973-bba9-57b7a4065aad}, !- Schedule Type Limits Name
  ,                                       !- Interpolate to Timestep
  6,                                      !- Hour 1
  0,                                      !- Minute 1
  0,                                      !- Value Until Time 1
  22,                                     !- Hour 2
  0,                                      !- Minute 2
  1,                                      !- Value Until Time 2
  24,                                     !- Hour 3
  0,                                      !- Minute 3
  0.05;                                   !- Value Until Time 3

OS:Schedule:Rule,
  {429cd548-0878-460a-a1f9-524b096fd367}, !- Handle
  Medium Office Number of People Schedule Weekdays Rule, !- Name
  {3f804e31-1721-4925-8736-d5dc1e1f6baa}, !- Schedule Ruleset Name
  1,                                      !- Rule Order
  {79b0e769-35f5-4a1a-a76f-14192f359e17}, !- Day Schedule Name
  ,                                       !- Apply Sunday
  Yes,                                    !- Apply Monday
  Yes,                                    !- Apply Tuesday
  Yes,                                    !- Apply Wednesday
  Yes,                                    !- Apply Thursday
  Yes;                                    !- Apply Friday

OS:Schedule:Day,
  {79b0e769-35f5-4a1a-a76f-14192f359e17}, !- Handle
  Medium Office Number of People Weekdays Schedule, !- Name
  {f3c763c7-58eb-4973-bba9-57b7a4065aad}, !- Schedule Type Limits Name
  ,                                       !- Interpolate to Timestep
  6,                                      !- Hour 1
  0,                                      !- Minute 1
  0,                                      !- Value Until Time 1
  7,                                      !- Hour 2
  0,                                      !- Minute 2
  0.1,                                    !- Value Until Time 2
  8,                                      !- Hour 3
  0,                                      !- Minute 3
  0.2,                                    !- Value Until Time 3
  12,                                     !- Hour 4
  0,                                      !- Minute 4
  0.95,                                   !- Value Until Time 4
  13,                                     !- Hour 5
  0,                                      !- Minute 5
  0.5,                                    !- Value Until Time 5
  17,                                     !- Hour 6
  0,                                      !- Minute 6
  0.95,                                   !- Value Until Time 6
  18,                                     !- Hour 7
  0,                                      !- Minute 7
  0.7,                                    !- Value Until Time 7
  20,                                     !- Hour 8
  0,                                      !- Minute 8
  0.4,                                    !- Value Until Time 8
  22,                                     !- Hour 9
  0,                                      !- Minute 9
  0.1,                                    !- Value Until Time 9
  24,                                     !- Hour 10
  0,                                      !- Minute 10
  0.05;                                   !- Value Until Time 10

OS:Schedule:Rule,
  {358f8504-7db6-41ef-ad6b-898b8102162e}, !- Handle
  Medium Office Number of People Schedule Saturday Rule, !- Name
  {3f804e31-1721-4925-8736-d5dc1e1f6baa}, !- Schedule Ruleset Name
  0,                                      !- Rule Order
  {13339a8d-b975-4c51-a32d-22bb587f7523}, !- Day Schedule Name
  ,                                       !- Apply Sunday
  ,                                       !- Apply Monday
  ,                                       !- Apply Tuesday
  ,                                       !- Apply Wednesday
  ,                                       !- Apply Thursday
  ,                                       !- Apply Friday
  Yes;                                    !- Apply Saturday

OS:Schedule:Day,
  {13339a8d-b975-4c51-a32d-22bb587f7523}, !- Handle
  Medium Office Number of People Saturday Schedule, !- Name
  {f3c763c7-58eb-4973-bba9-57b7a4065aad}, !- Schedule Type Limits Name
  ,                                       !- Interpolate to Timestep
  6,                                      !- Hour 1
  0,                                      !- Minute 1
  0,                                      !- Value Until Time 1
  8,                                      !- Hour 2
  0,                                      !- Minute 2
  0.1,                                    !- Value Until Time 2
  14,                                     !- Hour 3
  0,                                      !- Minute 3
  0.5,                                    !- Value Until Time 3
  17,                                     !- Hour 4
  0,                                      !- Minute 4
  0.1,                                    !- Value Until Time 4
  24,                                     !- Hour 5
  0,                                      !- Minute 5
  0;                                      !- Value Until Time 5

OS:ScheduleTypeLimits,
  {f3c763c7-58eb-4973-bba9-57b7a4065aad}, !- Handle
  Fractional,                             !- Name
  0,                                      !- Lower Limit Value {BasedOnField A4}
  1,                                      !- Upper Limit Value {BasedOnField A4}
  Continuous;                             !- Numeric Type

OS:Schedule:Ruleset,
  {2ae0ec18-e1b2-42a6-93ba-2bc485e91ae8}, !- Handle
  Medium Office People Activity Level Schedule, !- Name
  {69dbaf6d-6f24-4c8e-80c1-be408e60027d}, !- Schedule Type Limits Name
  {fa06ba08-2e22-4141-9173-6bff89af8426}; !- Default Day Schedule Name

OS:Schedule:Day,
  {fa06ba08-2e22-4141-9173-6bff89af8426}, !- Handle
  Medium Office People Activity Level All Days Schedule, !- Name
  {69dbaf6d-6f24-4c8e-80c1-be408e60027d}, !- Schedule Type Limits Name
  ,                                       !- Interpolate to Timestep
  24,                                     !- Hour 1
  0,                                      !- Minute 1
  120;                                    !- Value Until Time 1

OS:ScheduleTypeLimits,
  {69dbaf6d-6f24-4c8e-80c1-be408e60027d}, !- Handle
  ActivityLevel,                          !- Name
  0,                                      !- Lower Limit Value {BasedOnField A4}
  ,                                       !- Upper Limit Value {BasedOnField A4}
  Continuous,                             !- Numeric Type
  ActivityLevel;                          !- Unit Type

OS:Schedule:Ruleset,
  {e13ecc65-0902-484f-a788-ffd8ac123258}, !- Handle
  Medium Office Lighting Schedule,        !- Name
  {f3c763c7-58eb-4973-bba9-57b7a4065aad}, !- Schedule Type Limits Name
  {ca5e4851-4312-4915-a4ef-e0bcba88a8cb}, !- Default Day Schedule Name
  {eadb692b-7272-4828-afa6-0d63ba199cb3}, !- Summer Design Day Schedule Name
  {473281ef-a8a4-4f62-abfd-7a4b25830e3f}; !- Winter Design Day Schedule Name

OS:Schedule:Day,
  {ca5e4851-4312-4915-a4ef-e0bcba88a8cb}, !- Handle
  Medium Office Lighting All Other Days Schedule, !- Name
  {f3c763c7-58eb-4973-bba9-57b7a4065aad}, !- Schedule Type Limits Name
  ,                                       !- Interpolate to Timestep
  24,                                     !- Hour 1
  0,                                      !- Minute 1
  0.05;                                   !- Value Until Time 1

OS:Schedule:Day,
  {c7f54da3-b8e6-47ee-892e-347f2aeaa0dd}, !- Handle
  Medium Office Lighting Summer Design Day Schedule, !- Name
  ,                                       !- Schedule Type Limits Name
  ,                                       !- Interpolate to Timestep
  6,                                      !- Hour 1
  0,                                      !- Minute 1
  1,                                      !- Value Until Time 1
  24,                                     !- Hour 2
  0,                                      !- Minute 2
  0;                                      !- Value Until Time 2

OS:Schedule:Day,
  {eadb692b-7272-4828-afa6-0d63ba199cb3}, !- Handle
  Medium Office Lighting Summer Design Day Schedule 1, !- Name
  {f3c763c7-58eb-4973-bba9-57b7a4065aad}, !- Schedule Type Limits Name
  ,                                       !- Interpolate to Timestep
  6,                                      !- Hour 1
  0,                                      !- Minute 1
  1,                                      !- Value Until Time 1
  24,                                     !- Hour 2
  0,                                      !- Minute 2
  0;                                      !- Value Until Time 2

OS:Schedule:Day,
  {a6fef271-e054-49a7-bd5f-ab91bb626ca0}, !- Handle
  Medium Office Lighting Winter Design Day Schedule, !- Name
  ,                                       !- Schedule Type Limits Name
  ,                                       !- Interpolate to Timestep
  24,                                     !- Hour 1
  0,                                      !- Minute 1
  0;                                      !- Value Until Time 1

OS:Schedule:Day,
  {473281ef-a8a4-4f62-abfd-7a4b25830e3f}, !- Handle
  Medium Office Lighting Winter Design Day Schedule 1, !- Name
  {f3c763c7-58eb-4973-bba9-57b7a4065aad}, !- Schedule Type Limits Name
  ,                                       !- Interpolate to Timestep
  24,                                     !- Hour 1
  0,                                      !- Minute 1
  0;                                      !- Value Until Time 1

OS:Schedule:Rule,
  {6c3baa76-883c-4fff-a72a-b8d84311fc96}, !- Handle
  Medium Office Lighting Schedule Weekdays Rule, !- Name
  {e13ecc65-0902-484f-a788-ffd8ac123258}, !- Schedule Ruleset Name
  1,                                      !- Rule Order
  {e47871b5-a52b-4f34-acc1-d1e81fabb30f}, !- Day Schedule Name
  ,                                       !- Apply Sunday
  Yes,                                    !- Apply Monday
  Yes,                                    !- Apply Tuesday
  Yes,                                    !- Apply Wednesday
  Yes,                                    !- Apply Thursday
  Yes;                                    !- Apply Friday

OS:Schedule:Day,
  {e47871b5-a52b-4f34-acc1-d1e81fabb30f}, !- Handle
  Medium Office Lighting Weekdays Schedule, !- Name
  {f3c763c7-58eb-4973-bba9-57b7a4065aad}, !- Schedule Type Limits Name
  ,                                       !- Interpolate to Timestep
  5,                                      !- Hour 1
  0,                                      !- Minute 1
  0.05,                                   !- Value Until Time 1
  7,                                      !- Hour 2
  0,                                      !- Minute 2
  0.1,                                    !- Value Until Time 2
  8,                                      !- Hour 3
  0,                                      !- Minute 3
  0.3,                                    !- Value Until Time 3
  17,                                     !- Hour 4
  0,                                      !- Minute 4
  0.9,                                    !- Value Until Time 4
  18,                                     !- Hour 5
  0,                                      !- Minute 5
  0.7,                                    !- Value Until Time 5
  20,                                     !- Hour 6
  0,                                      !- Minute 6
  0.5,                                    !- Value Until Time 6
  22,                                     !- Hour 7
  0,                                      !- Minute 7
  0.3,                                    !- Value Until Time 7
  23,                                     !- Hour 8
  0,                                      !- Minute 8
  0.1,                                    !- Value Until Time 8
  24,                                     !- Hour 9
  0,                                      !- Minute 9
  0.05;                                   !- Value Until Time 9

OS:Schedule:Rule,
  {ed953465-d6ca-4b3a-aefe-091319a28031}, !- Handle
  Medium Office Lighting Schedule Saturday Rule, !- Name
  {e13ecc65-0902-484f-a788-ffd8ac123258}, !- Schedule Ruleset Name
  0,                                      !- Rule Order
  {b673f8dc-25c8-4aa9-98f0-ea2760c1b1af}, !- Day Schedule Name
  ,                                       !- Apply Sunday
  ,                                       !- Apply Monday
  ,                                       !- Apply Tuesday
  ,                                       !- Apply Wednesday
  ,                                       !- Apply Thursday
  ,                                       !- Apply Friday
  Yes;                                    !- Apply Saturday

OS:Schedule:Day,
  {b673f8dc-25c8-4aa9-98f0-ea2760c1b1af}, !- Handle
  Medium Office Lighting Saturday Schedule, !- Name
  {f3c763c7-58eb-4973-bba9-57b7a4065aad}, !- Schedule Type Limits Name
  ,                                       !- Interpolate to Timestep
  6,                                      !- Hour 1
  0,                                      !- Minute 1
  0.05,                                   !- Value Until Time 1
  8,                                      !- Hour 2
  0,                                      !- Minute 2
  0.1,                                    !- Value Until Time 2
  14,                                     !- Hour 3
  0,                                      !- Minute 3
  0.5,                                    !- Value Until Time 3
  17,                                     !- Hour 4
  0,                                      !- Minute 4
  0.15,                                   !- Value Until Time 4
  24,                                     !- Hour 5
  0,                                      !- Minute 5
  0.05;                                   !- Value Until Time 5

OS:Schedule:Ruleset,
  {557276b7-34b0-43b9-9e79-455cbb820dd3}, !- Handle
  Medium Office Electric Equipment Schedule, !- Name
  {f3c763c7-58eb-4973-bba9-57b7a4065aad}, !- Schedule Type Limits Name
  {7651e367-d843-4100-a268-86180ca034f3}, !- Default Day Schedule Name
  {dd31272a-8270-4e6c-b375-b03d4bd5ada2}, !- Summer Design Day Schedule Name
  {3e37ee22-9359-47da-b7bd-16214c606485}; !- Winter Design Day Schedule Name

OS:Schedule:Day,
  {7651e367-d843-4100-a268-86180ca034f3}, !- Handle
  Medium Office Electric Equipment All Other Days Schedule, !- Name
  {f3c763c7-58eb-4973-bba9-57b7a4065aad}, !- Schedule Type Limits Name
  ,                                       !- Interpolate to Timestep
  24,                                     !- Hour 1
  0,                                      !- Minute 1
  0.3;                                    !- Value Until Time 1

OS:Schedule:Day,
  {c5e24cc5-c173-470f-85f8-48feb4f76aa3}, !- Handle
  Medium Office Electric Equipment Summer Design Day Schedule, !- Name
  ,                                       !- Schedule Type Limits Name
  ,                                       !- Interpolate to Timestep
  6,                                      !- Hour 1
  0,                                      !- Minute 1
  1,                                      !- Value Until Time 1
  24,                                     !- Hour 2
  0,                                      !- Minute 2
  0;                                      !- Value Until Time 2

OS:Schedule:Day,
  {dd31272a-8270-4e6c-b375-b03d4bd5ada2}, !- Handle
  Medium Office Electric Equipment Summer Design Day Schedule 1, !- Name
  {f3c763c7-58eb-4973-bba9-57b7a4065aad}, !- Schedule Type Limits Name
  ,                                       !- Interpolate to Timestep
  6,                                      !- Hour 1
  0,                                      !- Minute 1
  1,                                      !- Value Until Time 1
  24,                                     !- Hour 2
  0,                                      !- Minute 2
  0;                                      !- Value Until Time 2

OS:Schedule:Day,
  {0b75ec0f-1b55-40aa-8309-e53a3a05c456}, !- Handle
  Medium Office Electric Equipment Winter Design Day Schedule, !- Name
  ,                                       !- Schedule Type Limits Name
  ,                                       !- Interpolate to Timestep
  24,                                     !- Hour 1
  0,                                      !- Minute 1
  0;                                      !- Value Until Time 1

OS:Schedule:Day,
  {3e37ee22-9359-47da-b7bd-16214c606485}, !- Handle
  Medium Office Electric Equipment Winter Design Day Schedule 1, !- Name
  {f3c763c7-58eb-4973-bba9-57b7a4065aad}, !- Schedule Type Limits Name
  ,                                       !- Interpolate to Timestep
  24,                                     !- Hour 1
  0,                                      !- Minute 1
  0;                                      !- Value Until Time 1

OS:Schedule:Rule,
  {cefa5c25-a950-425e-8244-ac0d67b5f78c}, !- Handle
  Medium Office Electric Equipment Schedule Weekdays Rule, !- Name
  {557276b7-34b0-43b9-9e79-455cbb820dd3}, !- Schedule Ruleset Name
  1,                                      !- Rule Order
  {1be50761-a0ac-4cf4-80d0-41984d2d727f}, !- Day Schedule Name
  ,                                       !- Apply Sunday
  Yes,                                    !- Apply Monday
  Yes,                                    !- Apply Tuesday
  Yes,                                    !- Apply Wednesday
  Yes,                                    !- Apply Thursday
  Yes;                                    !- Apply Friday

OS:Schedule:Day,
  {1be50761-a0ac-4cf4-80d0-41984d2d727f}, !- Handle
  Medium Office Electric Equipment Weekdays Schedule, !- Name
  {f3c763c7-58eb-4973-bba9-57b7a4065aad}, !- Schedule Type Limits Name
  ,                                       !- Interpolate to Timestep
  8,                                      !- Hour 1
  0,                                      !- Minute 1
  0.4,                                    !- Value Until Time 1
  12,                                     !- Hour 2
  0,                                      !- Minute 2
  0.9,                                    !- Value Until Time 2
  13,                                     !- Hour 3
  0,                                      !- Minute 3
  0.8,                                    !- Value Until Time 3
  17,                                     !- Hour 4
  0,                                      !- Minute 4
  0.9,                                    !- Value Until Time 4
  18,                                     !- Hour 5
  0,                                      !- Minute 5
  0.8,                                    !- Value Until Time 5
  20,                                     !- Hour 6
  0,                                      !- Minute 6
  0.6,                                    !- Value Until Time 6
  22,                                     !- Hour 7
  0,                                      !- Minute 7
  0.5,                                    !- Value Until Time 7
  24,                                     !- Hour 8
  0,                                      !- Minute 8
  0.4;                                    !- Value Until Time 8

OS:Schedule:Rule,
  {693f2c34-fb76-4459-8bce-edd9c22c9d7d}, !- Handle
  Medium Office Electric Equipment Schedule Saturday Rule, !- Name
  {557276b7-34b0-43b9-9e79-455cbb820dd3}, !- Schedule Ruleset Name
  0,                                      !- Rule Order
  {52027376-823d-48b2-8c6b-7b6b463cbf1c}, !- Day Schedule Name
  ,                                       !- Apply Sunday
  ,                                       !- Apply Monday
  ,                                       !- Apply Tuesday
  ,                                       !- Apply Wednesday