
OS:Version,
  {2cd9d51d-3efd-48c2-a440-92df3a988d55}, !- Handle
  3.7.0;                                  !- Version Identifier

OS:SimulationControl,
  {47923a4b-90b4-4bca-aa34-ce084cf67c0b}, !- Handle
  Yes,                                    !- Do Zone Sizing Calculation
  Yes,                                    !- Do System Sizing Calculation
  ,                                       !- Do Plant Sizing Calculation
  No,                                     !- Run Simulation for Sizing Periods
  Yes;                                    !- Run Simulation for Weather File Run Periods

OS:Timestep,
  {1564adc4-ce1e-4a9a-9b81-8b7ff61ba1da}, !- Handle
  6;                                      !- Number of Timesteps per Hour

OS:RunPeriod,
  {0796753b-693b-4aaf-8e2f-9d0aa25c9f0e}, !- Handle
  Run Period 1,                           !- Name
  1,                                      !- Begin Month
  1,                                      !- Begin Day of Month
  12,                                     !- End Month
  31,                                     !- End Day of Month
  No,                                     !- Use Weather File Holidays and Special Days
  No,                                     !- Use Weather File Daylight Saving Period
  No,                                     !- Apply Weekend Holiday Rule
  Yes,                                    !- Use Weather File Rain Indicators
  Yes,                                    !- Use Weather File Snow Indicators
  1;                                      !- Number of Times Runperiod to be Repeated

OS:SurfaceConvectionAlgorithm:Inside,
  {fed0e2df-02c0-492d-8ae6-553c29064932}, !- Handle
  TARP;                                   !- Algorithm

OS:SurfaceConvectionAlgorithm:Outside,
  {d21eb9b2-f7f0-41cc-a863-007d31ed7ef8}, !- Handle
  DOE-2;                                  !- Algorithm

OS:HeatBalanceAlgorithm,
  {f5468ebc-0d3f-4b97-b48b-7181c1ef2bd2}, !- Handle
  ConductionTransferFunction,             !- Algorithm
  200;                                    !- Surface Temperature Upper Limit {C}

OS:ZoneAirHeatBalanceAlgorithm,
  {353af611-2559-4823-b158-df7f369dec14}, !- Handle
  ,                                       !- Algorithm
  ,                                       !- Do Space Heat Balance for Sizing
  ;                                       !- Do Space Heat Balance for Simulation

OS:ConvergenceLimits,
  {067855ac-72fb-49e6-9d97-668afd08281d}, !- Handle
  1;                                      !- Minimum System Timestep {minutes}

OS:ShadowCalculation,
  {7c636f73-299c-464b-9176-d1f33a2d5b17}, !- Handle
  PolygonClipping,                        !- Shading Calculation Method
  ,                                       !- Shading Calculation Update Frequency Method
  20,                                     !- Shading Calculation Update Frequency
  15000,                                  !- Maximum Figures in Shadow Overlap Calculations
  ,                                       !- Polygon Clipping Algorithm
  512,                                    !- Pixel Counting Resolution
  ,                                       !- Sky Diffuse Modeling Algorithm
  No,                                     !- Output External Shading Calculation Results
  No,                                     !- Disable Self-Shading Within Shading Zone Groups
  No;                                     !- Disable Self-Shading From Shading Zone Groups to Other Zones

OS:Site,
  {13c1b990-04f8-4bb0-9eb7-1823c17498e5}, !- Handle
  Site 1,                                 !- Name
  41.77,                                  !- Latitude {deg}
  -87.75,                                 !- Longitude {deg}
  -6,                                     !- Time Zone {hr}
  190,                                    !- Elevation {m}
  ;                                       !- Terrain

OS:Site:GroundTemperature:BuildingSurface,
  {1b2edf52-9e06-4f2c-818b-9c8edd58d5e8}, !- Handle
  19.527,                                 !- January Ground Temperature {C}
  19.502,                                 !- February Ground Temperature {C}
  19.536,                                 !- March Ground Temperature {C}
  19.598,                                 !- April Ground Temperature {C}
  20.002,                                 !- May Ground Temperature {C}
  21.64,                                  !- June Ground Temperature {C}
  22.225,                                 !- July Ground Temperature {C}
  22.375,                                 !- August Ground Temperature {C}
  21.449,                                 !- September Ground Temperature {C}
  20.121,                                 !- October Ground Temperature {C}
  19.802,                                 !- November Ground Temperature {C}
  19.633;                                 !- December Ground Temperature {C}

OS:Site:GroundTemperature:Deep,
  {50e167db-ef64-4324-8a3f-be0c9c32e7fa}, !- Handle
  19.527,                                 !- January Deep Ground Temperature {C}
  19.502,                                 !- February Deep Ground Temperature {C}
  19.536,                                 !- March Deep Ground Temperature {C}
  19.598,                                 !- April Deep Ground Temperature {C}
  20.002,                                 !- May Deep Ground Temperature {C}
  21.64,                                  !- June Deep Ground Temperature {C}
  22.225,                                 !- July Deep Ground Temperature {C}
  22.375,                                 !- August Deep Ground Temperature {C}
  21.449,                                 !- September Deep Ground Temperature {C}
  20.121,                                 !- October Deep Ground Temperature {C}
  19.802,                                 !- November Deep Ground Temperature {C}
  19.633;                                 !- December Deep Ground Temperature {C}

OS:Site:WaterMainsTemperature,
  {57f07e49-75af-40da-afaa-ad410282902a}, !- Handle
  Correlation,                            !- Calculation Method
  ,                                       !- Temperature Schedule Name
  9.69,                                   !- Annual Average Outdoor Air Temperature {C}
  28.1;                                   !- Maximum Difference In Monthly Average Outdoor Air Temperatures {deltaC}

OS:SizingPeriod:DesignDay,
  {7eca8769-b987-48a9-8042-7501feaca0e4}, !- Handle
  Sizing Period Design Day 1,             !- Name
  -20.6,                                  !- Maximum Dry-Bulb Temperature {C}
  0,                                      !- Daily Dry-Bulb Temperature Range {deltaC}
  99063,                                  !- Barometric Pressure {Pa}
  4.9,                                    !- Wind Speed {m/s}
  270,                                    !- Wind Direction {deg}
  0,                                      !- Sky Clearness
  No,                                     !- Rain Indicator
  No,                                     !- Snow Indicator
  21,                                     !- Day of Month
  1,                                      !- Month
  WinterDesignDay,                        !- Day Type
  No,                                     !- Daylight Saving Time Indicator
  WetBulb,                                !- Humidity Condition Type
  ,                                       !- Humidity Condition Day Schedule Name
  -20.6,                                  !- Wetbulb or DewPoint at Maximum Dry-Bulb {C}
  ,                                       !- Humidity Ratio at Maximum Dry-Bulb {kgWater/kgDryAir}
  ,                                       !- Enthalpy at Maximum Dry-Bulb {J/kg}
  ;                                       !- Dry-Bulb Temperature Range Modifier Type

OS:SizingPeriod:DesignDay,
  {71647488-665c-4b49-9735-bc9101f3b699}, !- Handle
  Sizing Period Design Day 2,             !- Name
  33.2,                                   !- Maximum Dry-Bulb Temperature {C}
  10.7,                                   !- Daily Dry-Bulb Temperature Range {deltaC}
  99063,                                  !- Barometric Pressure {Pa}
  5.3,                                    !- Wind Speed {m/s}
  230,                                    !- Wind Direction {deg}
  1,                                      !- Sky Clearness
  No,                                     !- Rain Indicator
  No,                                     !- Snow Indicator
  21,                                     !- Day of Month
  7,                                      !- Month
  SummerDesignDay,                        !- Day Type
  No,                                     !- Daylight Saving Time Indicator
  WetBulb,                                !- Humidity Condition Type
  ,                                       !- Humidity Condition Day Schedule Name
  23.8,                                   !- Wetbulb or DewPoint at Maximum Dry-Bulb {C}
  ,                                       !- Humidity Ratio at Maximum Dry-Bulb {kgWater/kgDryAir}
  ,                                       !- Enthalpy at Maximum Dry-Bulb {J/kg}
  ;                                       !- Dry-Bulb Temperature Range Modifier Type

OS:ScheduleTypeLimits,
  {67a065c0-22e3-420b-a098-c1929910950b}, !- Handle
  Temperature,                            !- Name
  -60,                                    !- Lower Limit Value
  200,                                    !- Upper Limit Value
  CONTINUOUS,                             !- Numeric Type
  Temperature;                            !- Unit Type

OS:DefaultScheduleSet,
  {e80ca19b-df2a-43b9-bfcd-917af9c94757}, !- Handle
  Default Schedules,                      !- Name
  ,                                       !- Hours of Operation Schedule Name
  {6ea95f82-6673-47ae-9e54-6c2a51980faa}, !- Number of People Schedule Name
  {3c92be85-8fe5-4db9-85fb-438d591625a2}, !- People Activity Level Schedule Name
  {f1b3382e-5a8c-4aa9-8c20-7a90e5ce4d01}, !- Lighting Schedule Name
  {815b38a3-e904-4967-a8ce-67c5ce9961e4}, !- Electric Equipment Schedule Name
  {b5c743b3-d8f7-47e0-a3ce-60216105510d}, !- Gas Equipment Schedule Name
  {d01338be-979b-4f4c-8cfa-bcd878d72807}, !- Hot Water Equipment Schedule Name
  {751149f3-4831-4b8a-bc4c-8e2257596d05}, !- Infiltration Schedule Name
  ,                                       !- Steam Equipment Schedule Name
  ;                                       !- Other Equipment Schedule Name

OS:Schedule:Ruleset,
  {6ea95f82-6673-47ae-9e54-6c2a51980faa}, !- Handle
  Medium Office Number of People Schedule, !- Name
  {2599d124-517d-4e7e-848f-fb2deeba0793}, !- Schedule Type Limits Name
  {aaecb79a-519a-430a-a322-3b7fb28dd6a5}, !- Default Day Schedule Name
  {eef8678a-7bc5-48ef-aab6-545093ae369d}; !- Summer Design Day Schedule Name

OS:Schedule:Day,
  {aaecb79a-519a-430a-a322-3b7fb28dd6a5}, !- Handle
  Medium Office Number of People All Other Days Schedule, !- Name
  {2599d124-517d-4e7e-848f-fb2deeba0793}, !- Schedule Type Limits Name
  ,                                       !- Interpolate to Timestep
  24,                                     !- Hour 1
  0,                                      !- Minute 1
  0;                                      !- Value Until Time 1

OS:Schedule:Day,
  {87ea7c0c-99a0-456f-af39-cbc24acb37a1}, !- Handle
  Medium Office Number of People Summer Design Day Schedule, !- Name
  ,                                       !- Schedule Type Limits Name
  ,                                       !- Interpolate to Timestep
  6,                                      !- Hour 1
  0,                                      !- Minute 1
  0,                                      !- Value Until Time 1
  22,                                     !- Hour 2
  0,                                      !- Minute 2
  1,                                      !- Value Until Time 2
  24,                                     !- Hour 3
  0,                                      !- Minute 3
  0.05;                                   !- Value Until Time 3

OS:Schedule:Day,
  {eef8678a-7bc5-48ef-aab6-545093ae369d}, !- Handle
  Medium Office Number of People Summer Design Day Schedule 1, !- Name
  {2599d124-517d-4e7e-848f-fb2deeba0793}, !- Schedule Type Limits Name
  ,                                       !- Interpolate to Timestep
  6,                                      !- Hour 1
  0,                                      !- Minute 1
  0,                                      !- Value Until Time 1
  22,                                     !- Hour 2
  0,                                      !- Minute 2
  1,                                      !- Value Until Time 2
  24,                                     !- Hour 3
  0,                                      !- Minute 3
  0.05;                                   !- Value Until Time 3

OS:Schedule:Rule,
  {97692fac-3d6a-44cc-a2ca-57ebff45045e}, !- Handle
  Medium Office Number of People Schedule Weekdays Rule, !- Name
  {6ea95f82-6673-47ae-9e54-6c2a51980faa}, !- Schedule Ruleset Name
  1,                                      !- Rule Order
  {f7d7b6f4-a379-459b-aedb-a49a8e898895}, !- Day Schedule Name
  ,                                       !- Apply Sunday
  Yes,                                    !- Apply Monday
  Yes,                                    !- Apply Tuesday
  Yes,                                    !- Apply Wednesday
  Yes,                                    !- Apply Thursday
  Yes;                                    !- Apply Friday

OS:Schedule:Day,
  {f7d7b6f4-a379-459b-aedb-a49a8e898895}, !- Handle
  Medium Office Number of People Weekdays Schedule, !- Name
  {2599d124-517d-4e7e-848f-fb2deeba0793}, !- Schedule Type Limits Name
  ,                                       !- Interpolate to Timestep
  6,                                      !- Hour 1
  0,                                      !- Minute 1
  0,                                      !- Value Until Time 1
  7,                                      !- Hour 2
  0,                                      !- Minute 2
  0.1,                                    !- Value Until Time 2
  8,                                      !- Hour 3
  0,                                      !- Minute 3
  0.2,                                    !- Value Until Time 3
  12,                                     !- Hour 4
  0,                                      !- Minute 4
  0.95,                                   !- Value Until Time 4
  13,                                     !- Hour 5
  0,                                      !- Minute 5
  0.5,                                    !- Value Until Time 5
  17,                                     !- Hour 6
  0,                                      !- Minute 6
  0.95,                                   !- Value Until Time 6
  18,                                     !- Hour 7
  0,                                      !- Minute 7
  0.7,                                    !- Value Until Time 7
  20,                                     !- Hour 8
  0,                                      !- Minute 8
  0.4,                                    !- Value Until Time 8
  22,                                     !- Hour 9
  0,                                      !- Minute 9
  0.1,                                    !- Value Until Time 9
  24,                                     !- Hour 10
  0,                                      !- Minute 10
  0.05;                                   !- Value Until Time 10

OS:Schedule:Rule,
  {57f75c09-c41e-4ecf-8f2f-f626b84a1b69}, !- Handle
  Medium Office Number of People Schedule Saturday Rule, !- Name
  {6ea95f82-6673-47ae-9e54-6c2a51980faa}, !- Schedule Ruleset Name
  0,                                      !- Rule Order
  {5bd97e25-7035-4907-9aec-26eef22ebee4}, !- Day Schedule Name
  ,                                       !- Apply Sunday
  ,                                       !- Apply Monday
  ,                                       !- Apply Tuesday
  ,                                       !- Apply Wednesday
  ,                                       !- Apply Thursday
  ,                                       !- Apply Friday
  Yes;                                    !- Apply Saturday

OS:Schedule:Day,
  {5bd97e25-7035-4907-9aec-26eef22ebee4}, !- Handle
  Medium Office Number of People Saturday Schedule, !- Name
  {2599d124-517d-4e7e-848f-fb2deeba0793}, !- Schedule Type Limits Name
  ,                                       !- Interpolate to Timestep
  6,                                      !- Hour 1
  0,                                      !- Minute 1
  0,                                      !- Value Until Time 1
  8,                                      !- Hour 2
  0,                                      !- Minute 2
  0.1,                                    !- Value Until Time 2
  14,                                     !- Hour 3
  0,                                      !- Minute 3
  0.5,                                    !- Value Until Time 3
  17,                                     !- Hour 4
  0,                                      !- Minute 4
  0.1,                                    !- Value Until Time 4
  24,                                     !- Hour 5
  0,                                      !- Minute 5
  0;                                      !- Value Until Time 5

OS:ScheduleTypeLimits,
  {2599d124-517d-4e7e-848f-fb2deeba0793}, !- Handle
  Fractional,                             !- Name
  0,                                      !- Lower Limit Value
  1,                                      !- Upper Limit Value
  Continuous;                             !- Numeric Type

OS:Schedule:Ruleset,
  {3c92be85-8fe5-4db9-85fb-438d591625a2}, !- Handle
  Medium Office People Activity Level Schedule, !- Name
  {7dac81a9-8426-42fa-9780-c00fc9ae681a}, !- Schedule Type Limits Name
  {6c88be94-f117-4423-9c68-73ee5bb8e34e}; !- Default Day Schedule Name

OS:Schedule:Day,
  {6c88be94-f117-4423-9c68-73ee5bb8e34e}, !- Handle
  Medium Office People Activity Level All Days Schedule, !- Name
  {7dac81a9-8426-42fa-9780-c00fc9ae681a}, !- Schedule Type Limits Name
  ,                                       !- Interpolate to Timestep
  24,                                     !- Hour 1
  0,                                      !- Minute 1
  120;                                    !- Value Until Time 1

OS:ScheduleTypeLimits,
  {7dac81a9-8426-42fa-9780-c00fc9ae681a}, !- Handle
  ActivityLevel,                          !- Name
  0,                                      !- Lower Limit Value
  ,                                       !- Upper Limit Value
  Continuous,                             !- Numeric Type
  ActivityLevel;                          !- Unit Type

OS:Schedule:Ruleset,
  {f1b3382e-5a8c-4aa9-8c20-7a90e5ce4d01}, !- Handle
  Medium Office Lighting Schedule,        !- Name
  {2599d124-517d-4e7e-848f-fb2deeba0793}, !- Schedule Type Limits Name
  {d6ab380c-754d-47e4-a628-2ec8a5675c82}, !- Default Day Schedule Name
  {7d3242bc-9702-4eea-b1e8-d02ccc2d6ed1}, !- Summer Design Day Schedule Name
  {ee5b8927-22bc-4d6f-b1ac-4aa17d2d9b4d}; !- Winter Design Day Schedule Name

OS:Schedule:Day,
  {d6ab380c-754d-47e4-a628-2ec8a5675c82}, !- Handle
  Medium Office Lighting All Other Days Schedule, !- Name
  {2599d124-517d-4e7e-848f-fb2deeba0793}, !- Schedule Type Limits Name
  ,                                       !- Interpolate to Timestep
  24,                                     !- Hour 1
  0,                                      !- Minute 1
  0.05;                                   !- Value Until Time 1

OS:Schedule:Day,
  {2e3ec937-ff1d-456c-a270-e74ccc09e732}, !- Handle
  Medium Office Lighting Summer Design Day Schedule, !- Name
  ,                                       !- Schedule Type Limits Name
  ,                                       !- Interpolate to Timestep
  6,                                      !- Hour 1
  0,                                      !- Minute 1
  1,                                      !- Value Until Time 1
  24,                                     !- Hour 2
  0,                                      !- Minute 2
  0;                                      !- Value Until Time 2

OS:Schedule:Day,
  {7d3242bc-9702-4eea-b1e8-d02ccc2d6ed1}, !- Handle
  Medium Office Lighting Summer Design Day Schedule 1, !- Name
  {2599d124-517d-4e7e-848f-fb2deeba0793}, !- Schedule Type Limits Name
  ,                                       !- Interpolate to Timestep
  6,                                      !- Hour 1
  0,                                      !- Minute 1
  1,                                      !- Value Until Time 1
  24,                                     !- Hour 2
  0,                                      !- Minute 2
  0;                                      !- Value Until Time 2

OS:Schedule:Day,
  {3f5ef730-1a2a-4e03-bd17-0793f4011c1c}, !- Handle
  Medium Office Lighting Winter Design Day Schedule, !- Name
  ,                                       !- Schedule Type Limits Name
  ,                                       !- Interpolate to Timestep
  24,                                     !- Hour 1
  0,                                      !- Minute 1
  0;                                      !- Value Until Time 1

OS:Schedule:Day,
  {ee5b8927-22bc-4d6f-b1ac-4aa17d2d9b4d}, !- Handle
  Medium Office Lighting Winter Design Day Schedule 1, !- Name
  {2599d124-517d-4e7e-848f-fb2deeba0793}, !- Schedule Type Limits Name
  ,                                       !- Interpolate to Timestep
  24,                                     !- Hour 1
  0,                                      !- Minute 1
  0;                                      !- Value Until Time 1

OS:Schedule:Rule,
  {f485e83b-6b42-4019-a4f6-877eb411e076}, !- Handle
  Medium Office Lighting Schedule Weekdays Rule, !- Name
  {f1b3382e-5a8c-4aa9-8c20-7a90e5ce4d01}, !- Schedule Ruleset Name
  1,                                      !- Rule Order
  {cacfb581-03d3-40e5-95a8-91ebc314403a}, !- Day Schedule Name
  ,                                       !- Apply Sunday
  Yes,                                    !- Apply Monday
  Yes,                                    !- Apply Tuesday
  Yes,                                    !- Apply Wednesday
  Yes,                                    !- Apply Thursday
  Yes;                                    !- Apply Friday

OS:Schedule:Day,
  {cacfb581-03d3-40e5-95a8-91ebc314403a}, !- Handle
  Medium Office Lighting Weekdays Schedule, !- Name
  {2599d124-517d-4e7e-848f-fb2deeba0793}, !- Schedule Type Limits Name
  ,                                       !- Interpolate to Timestep
  5,                                      !- Hour 1
  0,                                      !- Minute 1
  0.05,                                   !- Value Until Time 1
  7,                                      !- Hour 2
  0,                                      !- Minute 2
  0.1,                                    !- Value Until Time 2
  8,                                      !- Hour 3
  0,                                      !- Minute 3
  0.3,                                    !- Value Until Time 3
  17,                                     !- Hour 4
  0,                                      !- Minute 4
  0.9,                                    !- Value Until Time 4
  18,                                     !- Hour 5
  0,                                      !- Minute 5
  0.7,                                    !- Value Until Time 5
  20,                                     !- Hour 6
  0,                                      !- Minute 6
  0.5,                                    !- Value Until Time 6
  22,                                     !- Hour 7
  0,                                      !- Minute 7
  0.3,                                    !- Value Until Time 7
  23,                                     !- Hour 8
  0,                                      !- Minute 8
  0.1,                                    !- Value Until Time 8
  24,                                     !- Hour 9
  0,                                      !- Minute 9
  0.05;                                   !- Value Until Time 9

OS:Schedule:Rule,
  {cce19e6b-a7dd-4a91-a437-cb8aaf062d78}, !- Handle
  Medium Office Lighting Schedule Saturday Rule, !- Name
  {f1b3382e-5a8c-4aa9-8c20-7a90e5ce4d01}, !- Schedule Ruleset Name
  0,                                      !- Rule Order
  {79ac40c9-ad77-461e-8179-bb87c5dd752f}, !- Day Schedule Name
  ,                                       !- Apply Sunday
  ,                                       !- Apply Monday
  ,                                       !- Apply Tuesday
  ,                                       !- Apply Wednesday
  ,                                       !- Apply Thursday
  ,                                       !- Apply Friday
  Yes;                                    !- Apply Saturday

OS:Schedule:Day,
  {79ac40c9-ad77-461e-8179-bb87c5dd752f}, !- Handle
  Medium Office Lighting Saturday Schedule, !- Name
  {2599d124-517d-4e7e-848f-fb2deeba0793}, !- Schedule Type Limits Name
  ,                                       !- Interpolate to Timestep
  6,                                      !- Hour 1
  0,                                      !- Minute 1
  0.05,                                   !- Value Until Time 1
  8,                                      !- Hour 2
  0,                                      !- Minute 2
  0.1,                                    !- Value Until Time 2
  14,                                     !- Hour 3
  0,                                      !- Minute 3
  0.5,                                    !- Value Until Time 3
  17,                                     !- Hour 4
  0,                                      !- Minute 4
  0.15,                                   !- Value Until Time 4
  24,                                     !- Hour 5
  0,                                      !- Minute 5
  0.05;                                   !- Value Until Time 5

OS:Schedule:Ruleset,
  {815b38a3-e904-4967-a8ce-67c5ce9961e4}, !- Handle
  Medium Office Electric Equipment Schedule, !- Name
  {2599d124-517d-4e7e-848f-fb2deeba0793}, !- Schedule Type Limits Name
  {aad069d5-8961-4a45-b4aa-6bec5ece2f2e}, !- Default Day Schedule Name
  {c25ac7e3-6245-4ba0-8da8-70f9f5bcc636}, !- Summer Design Day Schedule Name
  {89a386f8-3dc8-4396-b706-73b3592fc5cc}; !- Winter Design Day Schedule Name

OS:Schedule:Day,
  {aad069d5-8961-4a45-b4aa-6bec5ece2f2e}, !- Handle
  Medium Office Electric Equipment All Other Days Schedule, !- Name
  {2599d124-517d-4e7e-848f-fb2deeba0793}, !- Schedule Type Limits Name
  ,                                       !- Interpolate to Timestep
  24,                                     !- Hour 1
  0,                                      !- Minute 1
  0.3;                                    !- Value Until Time 1

OS:Schedule:Day,
  {9d38dccc-c626-4593-aa2c-e6cb944b48b7}, !- Handle
  Medium Office Electric Equipment Summer Design Day Schedule, !- Name
  ,                                       !- Schedule Type Limits Name
  ,                                       !- Interpolate to Timestep
  6,                                      !- Hour 1
  0,                                      !- Minute 1
  1,                                      !- Value Until Time 1
  24,                                     !- Hour 2
  0,                                      !- Minute 2
  0;                                      !- Value Until Time 2

OS:Schedule:Day,
  {c25ac7e3-6245-4ba0-8da8-70f9f5bcc636}, !- Handle
  Medium Office Electric Equipment Summer Design Day Schedule 1, !- Name
  {2599d124-517d-4e7e-848f-fb2deeba0793}, !- Schedule Type Limits Name
  ,                                       !- Interpolate to Timestep
  6,                                      !- Hour 1
  0,                                      !- Minute 1
  1,                                      !- Value Until Time 1
  24,                                     !- Hour 2
  0,                                      !- Minute 2
  0;                                      !- Value Until Time 2

OS:Schedule:Day,
  {b1fe622a-6fe3-45ef-bc89-27c46f940550}, !- Handle
  Medium Office Electric Equipment Winter Design Day Schedule, !- Name
  ,                                       !- Schedule Type Limits Name
  ,                                       !- Interpolate to Timestep
  24,                                     !- Hour 1
  0,                                      !- Minute 1
  0;                                      !- Value Until Time 1

OS:Schedule:Day,
  {89a386f8-3dc8-4396-b706-73b3592fc5cc}, !- Handle
  Medium Office Electric Equipment Winter Design Day Schedule 1, !- Name
  {2599d124-517d-4e7e-848f-fb2deeba0793}, !- Schedule Type Limits Name
  ,                                       !- Interpolate to Timestep
  24,                                     !- Hour 1
  0,                                      !- Minute 1
  0;                                      !- Value Until Time 1

OS:Schedule:Rule,
  {73a5bb22-0f79-430b-a52f-91b5d0725988}, !- Handle
  Medium Office Electric Equipment Schedule Weekdays Rule, !- Name
  {815b38a3-e904-4967-a8ce-67c5ce9961e4}, !- Schedule Ruleset Name
  1,                                      !- Rule Order
  {0fdeb8f8-b94c-4337-b429-962345caaac5}, !- Day Schedule Name
  ,                                       !- Apply Sunday
  Yes,                                    !- Apply Monday
  Yes,                                    !- Apply Tuesday
  Yes,                                    !- Apply Wednesday
  Yes,                                    !- Apply Thursday
  Yes;                                    !- Apply Friday

OS:Schedule:Day,
  {0fdeb8f8-b94c-4337-b429-962345caaac5}, !- Handle
  Medium Office Electric Equipment Weekdays Schedule, !- Name
  {2599d124-517d-4e7e-848f-fb2deeba0793}, !- Schedule Type Limits Name
  ,                                       !- Interpolate to Timestep
  8,                                      !- Hour 1