
OS:Version,
  {e558c896-ed95-47e6-8cfe-76ef6ddd950c}, !- Handle
  1.4.1;                                  !- Version Identifier

OS:SimulationControl,
  {c88e1569-bd7a-419f-81e5-f66758b4e7b9}, !- Handle
  Yes,                                    !- Do Zone Sizing Calculation
  Yes,                                    !- Do System Sizing Calculation
  ,                                       !- Do Plant Sizing Calculation
  No,                                     !- Run Simulation for Sizing Periods
  Yes;                                    !- Run Simulation for Weather File Run Periods

OS:Timestep,
  {04b325de-fbe9-47f9-9a30-b93e7e01e298}, !- Handle
  6;                                      !- Number of Timesteps per Hour

OS:RunPeriod,
  {efa9030f-eb25-4e3b-9406-7b05df58e21d}, !- Handle
  Run Period 1,                           !- Name
  1,                                      !- Begin Month
  1,                                      !- Begin Day of Month
  12,                                     !- End Month
  31,                                     !- End Day of Month
  No,                                     !- Use Weather File Holidays and Special Days
  No,                                     !- Use Weather File Daylight Saving Period
  No,                                     !- Apply Weekend Holiday Rule
  Yes,                                    !- Use Weather File Rain Indicators
  Yes,                                    !- Use Weather File Snow Indicators
  1;                                      !- Number of Times Runperiod to be Repeated

OS:SurfaceConvectionAlgorithm:Inside,
  {147df976-4d74-42a2-89fc-36fd509cb630}, !- Handle
  TARP;                                   !- Algorithm

OS:SurfaceConvectionAlgorithm:Outside,
  {107e3f1d-93cb-4864-99bd-61aa8b4b2210}, !- Handle
  DOE-2;                                  !- Algorithm

OS:HeatBalanceAlgorithm,
  {4ca8d31a-ca59-4b39-a604-63704ea1a8a1}, !- Handle
  ConductionTransferFunction,             !- Algorithm
  200;                                    !- Surface Temperature Upper Limit {F}

OS:ZoneAirHeatBalanceAlgorithm,
  {f3d6b6d3-3fbe-4f91-91e0-1860f9a948dc}, !- Handle
  AnalyticalSolution;                     !- Algorithm

OS:ConvergenceLimits,
  {7933b546-c323-46a5-8ffc-562db355918a}; !- Handle

OS:ShadowCalculation,
  {670b0ca9-abe1-44b0-8992-29267293324a}, !- Handle
  7,                                      !- Calculation Frequency
  15000;                                  !- Maximum Figures in Shadow Overlap Calculations

OS:Site,
  {81f73fb8-b356-4212-90cc-0b7a640d064e}, !- Handle
  Site 1,                                 !- Name
  41.77,                                  !- Latitude {deg}
  -87.75,                                 !- Longitude {deg}
  -6,                                     !- Time Zone {hr}
  190,                                    !- Elevation {m}
  ;                                       !- Terrain

OS:Site:GroundTemperature:BuildingSurface,
  {c8fe2c3e-366f-4c33-9159-a753331cb50c}, !- Handle
  19.527,                                 !- January Ground Temperature {C}
  19.502,                                 !- February Ground Temperature {C}
  19.536,                                 !- March Ground Temperature {C}
  19.598,                                 !- April Ground Temperature {C}
  20.002,                                 !- May Ground Temperature {C}
  21.64,                                  !- June Ground Temperature {C}
  22.225,                                 !- July Ground Temperature {C}
  22.375,                                 !- August Ground Temperature {C}
  21.449,                                 !- September Ground Temperature {C}
  20.121,                                 !- October Ground Temperature {C}
  19.802,                                 !- November Ground Temperature {C}
  19.633;                                 !- December Ground Temperature {C}

OS:Site:WaterMainsTemperature,
  {4f707c12-a43d-4b4b-af93-28c6185e1c46}, !- Handle
  Correlation,                            !- Calculation Method
  ,                                       !- Temperature Schedule Name
  9.69,                                   !- Annual Average Outdoor Air Temperature {C}
  28.1;                                   !- Maximum Difference In Monthly Average Outdoor Air Temperatures {deltaC}

OS:SizingPeriod:DesignDay,
  {0dece2c7-92e0-4bf1-adc1-2f1f46b01be6}, !- Handle
  Sizing Period Design Day 1,             !- Name
  -20.6,                                  !- Maximum Dry-Bulb Temperature {C}
  0,                                      !- Daily Dry-Bulb Temperature Range {deltaC}
  -20.6,                                  !- Humidity Indicating Conditions at Maximum Dry-Bulb {BasedOnField A3}
  99063,                                  !- Barometric Pressure {Pa}
  4.9,                                    !- Wind Speed {m/s}
  270,                                    !- Wind Direction {deg}
  0,                                      !- Sky Clearness
  0,                                      !- Rain Indicator
  0,                                      !- Snow Indicator
  21,                                     !- Day of Month
  1,                                      !- Month
  WinterDesignDay,                        !- Day Type
  0,                                      !- Daylight Saving Time Indicator
  WetBulb,                                !- Humidity Indicating Type
  ,                                       !- Humidity Indicating Day Schedule Name
  DefaultMultipliers,                     !- Dry-Bulb Temperature Range Modifier Type
  ,                                       !- Dry-Bulb Temperature Range Modifier Schedule Name
  AshraeClearSky;                         !- Solar Model Indicator

OS:SizingPeriod:DesignDay,
  {d52ae463-1798-4d65-b077-e04be9276a6b}, !- Handle
  Sizing Period Design Day 2,             !- Name
  33.2,                                   !- Maximum Dry-Bulb Temperature {C}
  10.7,                                   !- Daily Dry-Bulb Temperature Range {deltaC}
  23.8,                                   !- Humidity Indicating Conditions at Maximum Dry-Bulb {BasedOnField A3}
  99063,                                  !- Barometric Pressure {Pa}
  5.3,                                    !- Wind Speed {m/s}
  230,                                    !- Wind Direction {deg}
  1,                                      !- Sky Clearness
  0,                                      !- Rain Indicator
  0,                                      !- Snow Indicator
  21,                                     !- Day of Month
  7,                                      !- Month
  SummerDesignDay,                        !- Day Type
  0,                                      !- Daylight Saving Time Indicator
  WetBulb,                                !- Humidity Indicating Type
  ,                                       !- Humidity Indicating Day Schedule Name
  DefaultMultipliers,                     !- Dry-Bulb Temperature Range Modifier Type
  ,                                       !- Dry-Bulb Temperature Range Modifier Schedule Name
  AshraeClearSky;                         !- Solar Model Indicator

OS:ScheduleTypeLimits,
  {04ed8577-5a38-4afd-9fe6-a6f350935fda}, !- Handle
  Temperature,                            !- Name
  -60,                                    !- Lower Limit Value {BasedOnField A4}
  200,                                    !- Upper Limit Value {BasedOnField A4}
  CONTINUOUS,                             !- Numeric Type
  Temperature;                            !- Unit Type

OS:DefaultScheduleSet,
  {30d7c425-f691-4f55-adc8-7d0cea986423}, !- Handle
  Default Schedules,                      !- Name
  ,                                       !- Hours of Operation Schedule Name
  {87b55133-14ff-4b9d-9bfa-2217a534f8c2}, !- Number of People Schedule Name
  {86bd4d07-2348-4345-a473-62efc40b96ff}, !- People Activity Level Schedule Name
  {02253257-0001-4bfb-92e9-f903a30a562b}, !- Lighting Schedule Name
  {575bb77c-feca-49ef-a22c-9eccb595f89a}, !- Electric Equipment Schedule Name
  {12278470-6f9c-4b65-b415-7acf7a4d074e}, !- Gas Equipment Schedule Name
  {27610f1f-fbeb-49e2-a5d1-0f549fb02b4c}, !- Hot Water Equipment Schedule Name
  {de2ad25c-141e-4c37-b5f9-b79f7bc5020e}, !- Infiltration Schedule Name
  ,                                       !- Steam Equipment Schedule Name
  ;                                       !- Other Equipment Schedule Name

OS:Schedule:Ruleset,
  {87b55133-14ff-4b9d-9bfa-2217a534f8c2}, !- Handle
  Medium Office Number of People Schedule, !- Name
  {b859a429-bf28-4627-8406-ae17addeee6c}, !- Schedule Type Limits Name
  {43d3d412-afd4-49ac-912a-095ee8dc7107}, !- Default Day Schedule Name
  {a16b836f-95d9-4077-a9b3-2fcae83ecd65}; !- Summer Design Day Schedule Name

OS:Schedule:Day,
  {43d3d412-afd4-49ac-912a-095ee8dc7107}, !- Handle
  Medium Office Number of People All Other Days Schedule, !- Name
  {b859a429-bf28-4627-8406-ae17addeee6c}, !- Schedule Type Limits Name
  ,                                       !- Interpolate to Timestep
  24,                                     !- Hour 1
  0,                                      !- Minute 1
  0;                                      !- Value Until Time 1

OS:Schedule:Day,
  {a5759bba-5faf-45ec-8b5a-61fd3b8e82c4}, !- Handle
  Medium Office Number of People Summer Design Day Schedule, !- Name
  ,                                       !- Schedule Type Limits Name
  ,                                       !- Interpolate to Timestep
  6,                                      !- Hour 1
  0,                                      !- Minute 1
  0,                                      !- Value Until Time 1
  22,                                     !- Hour 2
  0,                                      !- Minute 2
  1,                                      !- Value Until Time 2
  24,                                     !- Hour 3
  0,                                      !- Minute 3
  0.05;                                   !- Value Until Time 3

OS:Schedule:Day,
  {a16b836f-95d9-4077-a9b3-2fcae83ecd65}, !- Handle
  Medium Office Number of People Summer Design Day Schedule 1, !- Name
  {b859a429-bf28-4627-8406-ae17addeee6c}, !- Schedule Type Limits Name
  ,                                       !- Interpolate to Timestep
  6,                                      !- Hour 1
  0,                                      !- Minute 1
  0,                                      !- Value Until Time 1
  22,                                     !- Hour 2
  0,                                      !- Minute 2
  1,                                      !- Value Until Time 2
  24,                                     !- Hour 3
  0,                                      !- Minute 3
  0.05;                                   !- Value Until Time 3

OS:Schedule:Rule,
  {511d542f-b79f-441e-95c5-102af6630810}, !- Handle
  Medium Office Number of People Schedule Weekdays Rule, !- Name
  {87b55133-14ff-4b9d-9bfa-2217a534f8c2}, !- Schedule Ruleset Name
  1,                                      !- Rule Order
  {ef5136b0-a866-4ff6-97a3-f4b988d6a531}, !- Day Schedule Name
  ,                                       !- Apply Sunday
  Yes,                                    !- Apply Monday
  Yes,                                    !- Apply Tuesday
  Yes,                                    !- Apply Wednesday
  Yes,                                    !- Apply Thursday
  Yes;                                    !- Apply Friday

OS:Schedule:Day,
  {ef5136b0-a866-4ff6-97a3-f4b988d6a531}, !- Handle
  Medium Office Number of People Weekdays Schedule, !- Name
  {b859a429-bf28-4627-8406-ae17addeee6c}, !- Schedule Type Limits Name
  ,                                       !- Interpolate to Timestep
  6,                                      !- Hour 1
  0,                                      !- Minute 1
  0,                                      !- Value Until Time 1
  7,                                      !- Hour 2
  0,                                      !- Minute 2
  0.1,                                    !- Value Until Time 2
  8,                                      !- Hour 3
  0,                                      !- Minute 3
  0.2,                                    !- Value Until Time 3
  12,                                     !- Hour 4
  0,                                      !- Minute 4
  0.95,                                   !- Value Until Time 4
  13,                                     !- Hour 5
  0,                                      !- Minute 5
  0.5,                                    !- Value Until Time 5
  17,                                     !- Hour 6
  0,                                      !- Minute 6
  0.95,                                   !- Value Until Time 6
  18,                                     !- Hour 7
  0,                                      !- Minute 7
  0.7,                                    !- Value Until Time 7
  20,                                     !- Hour 8
  0,                                      !- Minute 8
  0.4,                                    !- Value Until Time 8
  22,                                     !- Hour 9
  0,                                      !- Minute 9
  0.1,                                    !- Value Until Time 9
  24,                                     !- Hour 10
  0,                                      !- Minute 10
  0.05;                                   !- Value Until Time 10

OS:Schedule:Rule,
  {cf6f2e82-de37-439b-93e1-e73316894788}, !- Handle
  Medium Office Number of People Schedule Saturday Rule, !- Name
  {87b55133-14ff-4b9d-9bfa-2217a534f8c2}, !- Schedule Ruleset Name
  0,                                      !- Rule Order
  {350822f4-180d-48cb-9c62-d64f33f621d3}, !- Day Schedule Name
  ,                                       !- Apply Sunday
  ,                                       !- Apply Monday
  ,                                       !- Apply Tuesday
  ,                                       !- Apply Wednesday
  ,                                       !- Apply Thursday
  ,                                       !- Apply Friday
  Yes;                                    !- Apply Saturday

OS:Schedule:Day,
  {350822f4-180d-48cb-9c62-d64f33f621d3}, !- Handle
  Medium Office Number of People Saturday Schedule, !- Name
  {b859a429-bf28-4627-8406-ae17addeee6c}, !- Schedule Type Limits Name
  ,                                       !- Interpolate to Timestep
  6,                                      !- Hour 1
  0,                                      !- Minute 1
  0,                                      !- Value Until Time 1
  8,                                      !- Hour 2
  0,                                      !- Minute 2
  0.1,                                    !- Value Until Time 2
  14,                                     !- Hour 3
  0,                                      !- Minute 3
  0.5,                                    !- Value Until Time 3
  17,                                     !- Hour 4
  0,                                      !- Minute 4
  0.1,                                    !- Value Until Time 4
  24,                                     !- Hour 5
  0,                                      !- Minute 5
  0;                                      !- Value Until Time 5

OS:ScheduleTypeLimits,
  {b859a429-bf28-4627-8406-ae17addeee6c}, !- Handle
  Fractional,                             !- Name
  0,                                      !- Lower Limit Value {BasedOnField A4}
  1,                                      !- Upper Limit Value {BasedOnField A4}
  Continuous;                             !- Numeric Type

OS:Schedule:Ruleset,
  {86bd4d07-2348-4345-a473-62efc40b96ff}, !- Handle
  Medium Office People Activity Level Schedule, !- Name
  {96f1ef49-ee77-486f-a733-0d804dedd367}, !- Schedule Type Limits Name
  {c347c5ff-d79f-46d4-b49d-d2fec25fa289}; !- Default Day Schedule Name

OS:Schedule:Day,
  {c347c5ff-d79f-46d4-b49d-d2fec25fa289}, !- Handle
  Medium Office People Activity Level All Days Schedule, !- Name
  {96f1ef49-ee77-486f-a733-0d804dedd367}, !- Schedule Type Limits Name
  ,                                       !- Interpolate to Timestep
  24,                                     !- Hour 1
  0,                                      !- Minute 1
  120;                                    !- Value Until Time 1

OS:ScheduleTypeLimits,
  {96f1ef49-ee77-486f-a733-0d804dedd367}, !- Handle
  ActivityLevel,                          !- Name
  0,                                      !- Lower Limit Value {BasedOnField A4}
  ,                                       !- Upper Limit Value {BasedOnField A4}
  Continuous,                             !- Numeric Type
  ActivityLevel;                          !- Unit Type

OS:Schedule:Ruleset,
  {02253257-0001-4bfb-92e9-f903a30a562b}, !- Handle
  Medium Office Lighting Schedule,        !- Name
  {b859a429-bf28-4627-8406-ae17addeee6c}, !- Schedule Type Limits Name
  {7de46c63-d41f-4609-8a68-ebc53500600c}, !- Default Day Schedule Name
  {98083adf-0b75-4345-9814-e89d2feb3292}, !- Summer Design Day Schedule Name
  {ccc3561f-af52-4fb9-b08f-ae9c0453e475}; !- Winter Design Day Schedule Name

OS:Schedule:Day,
  {7de46c63-d41f-4609-8a68-ebc53500600c}, !- Handle
  Medium Office Lighting All Other Days Schedule, !- Name
  {b859a429-bf28-4627-8406-ae17addeee6c}, !- Schedule Type Limits Name
  ,                                       !- Interpolate to Timestep
  24,                                     !- Hour 1
  0,                                      !- Minute 1
  0.05;                                   !- Value Until Time 1

OS:Schedule:Day,
  {14b245cc-c90a-4cc2-ace8-042c21ef1e57}, !- Handle
  Medium Office Lighting Summer Design Day Schedule, !- Name
  ,                                       !- Schedule Type Limits Name
  ,                                       !- Interpolate to Timestep
  6,                                      !- Hour 1
  0,                                      !- Minute 1
  1,                                      !- Value Until Time 1
  24,                                     !- Hour 2
  0,                                      !- Minute 2
  0;                                      !- Value Until Time 2

OS:Schedule:Day,
  {98083adf-0b75-4345-9814-e89d2feb3292}, !- Handle
  Medium Office Lighting Summer Design Day Schedule 1, !- Name
  {b859a429-bf28-4627-8406-ae17addeee6c}, !- Schedule Type Limits Name
  ,                                       !- Interpolate to Timestep
  6,                                      !- Hour 1
  0,                                      !- Minute 1
  1,                                      !- Value Until Time 1
  24,                                     !- Hour 2
  0,                                      !- Minute 2
  0;                                      !- Value Until Time 2

OS:Schedule:Day,
  {56ee1ecf-0cea-4d5c-ac9e-003ff7f4c733}, !- Handle
  Medium Office Lighting Winter Design Day Schedule, !- Name
  ,                                       !- Schedule Type Limits Name
  ,                                       !- Interpolate to Timestep
  24,                                     !- Hour 1
  0,                                      !- Minute 1
  0;                                      !- Value Until Time 1

OS:Schedule:Day,
  {ccc3561f-af52-4fb9-b08f-ae9c0453e475}, !- Handle
  Medium Office Lighting Winter Design Day Schedule 1, !- Name
  {b859a429-bf28-4627-8406-ae17addeee6c}, !- Schedule Type Limits Name
  ,                                       !- Interpolate to Timestep
  24,                                     !- Hour 1
  0,                                      !- Minute 1
  0;                                      !- Value Until Time 1

OS:Schedule:Rule,
  {23c0c020-1d82-47ee-8536-713f1eb077bc}, !- Handle
  Medium Office Lighting Schedule Weekdays Rule, !- Name
  {02253257-0001-4bfb-92e9-f903a30a562b}, !- Schedule Ruleset Name
  1,                                      !- Rule Order
  {bb5feb2c-66c3-4067-b8a3-20106a5f6aa1}, !- Day Schedule Name
  ,                                       !- Apply Sunday
  Yes,                                    !- Apply Monday
  Yes,                                    !- Apply Tuesday
  Yes,                                    !- Apply Wednesday
  Yes,                                    !- Apply Thursday
  Yes;                                    !- Apply Friday

OS:Schedule:Day,
  {bb5feb2c-66c3-4067-b8a3-20106a5f6aa1}, !- Handle
  Medium Office Lighting Weekdays Schedule, !- Name
  {b859a429-bf28-4627-8406-ae17addeee6c}, !- Schedule Type Limits Name
  ,                                       !- Interpolate to Timestep
  5,                                      !- Hour 1
  0,                                      !- Minute 1
  0.05,                                   !- Value Until Time 1
  7,                                      !- Hour 2
  0,                                      !- Minute 2
  0.1,                                    !- Value Until Time 2
  8,                                      !- Hour 3
  0,                                      !- Minute 3
  0.3,                                    !- Value Until Time 3
  17,                                     !- Hour 4
  0,                                      !- Minute 4
  0.9,                                    !- Value Until Time 4
  18,                                     !- Hour 5
  0,                                      !- Minute 5
  0.7,                                    !- Value Until Time 5
  20,                                     !- Hour 6
  0,                                      !- Minute 6
  0.5,                                    !- Value Until Time 6
  22,                                     !- Hour 7
  0,                                      !- Minute 7
  0.3,                                    !- Value Until Time 7
  23,                                     !- Hour 8
  0,                                      !- Minute 8
  0.1,                                    !- Value Until Time 8
  24,                                     !- Hour 9
  0,                                      !- Minute 9
  0.05;                                   !- Value Until Time 9

OS:Schedule:Rule,
  {7f803cdf-e4f1-4647-bd12-5061abde69ae}, !- Handle
  Medium Office Lighting Schedule Saturday Rule, !- Name
  {02253257-0001-4bfb-92e9-f903a30a562b}, !- Schedule Ruleset Name
  0,                                      !- Rule Order
  {6e800ba0-8784-4e30-b638-f65ca718ca58}, !- Day Schedule Name
  ,                                       !- Apply Sunday
  ,                                       !- Apply Monday
  ,                                       !- Apply Tuesday
  ,                                       !- Apply Wednesday
  ,                                       !- Apply Thursday
  ,                                       !- Apply Friday
  Yes;                                    !- Apply Saturday

OS:Schedule:Day,
  {6e800ba0-8784-4e30-b638-f65ca718ca58}, !- Handle
  Medium Office Lighting Saturday Schedule, !- Name
  {b859a429-bf28-4627-8406-ae17addeee6c}, !- Schedule Type Limits Name
  ,                                       !- Interpolate to Timestep
  6,                                      !- Hour 1
  0,                                      !- Minute 1
  0.05,                                   !- Value Until Time 1
  8,                                      !- Hour 2
  0,                                      !- Minute 2
  0.1,                                    !- Value Until Time 2
  14,                                     !- Hour 3
  0,                                      !- Minute 3
  0.5,                                    !- Value Until Time 3
  17,                                     !- Hour 4
  0,                                      !- Minute 4
  0.15,                                   !- Value Until Time 4
  24,                                     !- Hour 5
  0,                                      !- Minute 5
  0.05;                                   !- Value Until Time 5

OS:Schedule:Ruleset,
  {575bb77c-feca-49ef-a22c-9eccb595f89a}, !- Handle
  Medium Office Electric Equipment Schedule, !- Name
  {b859a429-bf28-4627-8406-ae17addeee6c}, !- Schedule Type Limits Name
  {1adac767-ebc7-455d-96f4-26b607287203}, !- Default Day Schedule Name
  {5c69140b-484b-40ba-b08b-14614c425675}, !- Summer Design Day Schedule Name
  {4cf41da7-b244-453c-81ec-14f053512931}; !- Winter Design Day Schedule Name

OS:Schedule:Day,
  {1adac767-ebc7-455d-96f4-26b607287203}, !- Handle
  Medium Office Electric Equipment All Other Days Schedule, !- Name
  {b859a429-bf28-4627-8406-ae17addeee6c}, !- Schedule Type Limits Name
  ,                                       !- Interpolate to Timestep
  24,                                     !- Hour 1
  0,                                      !- Minute 1
  0.3;                                    !- Value Until Time 1

OS:Schedule:Day,
  {7eb83729-9e87-4138-9312-10a5a17996fc}, !- Handle
  Medium Office Electric Equipment Summer Design Day Schedule, !- Name
  ,                                       !- Schedule Type Limits Name
  ,                                       !- Interpolate to Timestep
  6,                                      !- Hour 1
  0,                                      !- Minute 1
  1,                                      !- Value Until Time 1
  24,                                     !- Hour 2
  0,                                      !- Minute 2
  0;                                      !- Value Until Time 2

OS:Schedule:Day,
  {5c69140b-484b-40ba-b08b-14614c425675}, !- Handle
  Medium Office Electric Equipment Summer Design Day Schedule 1, !- Name
  {b859a429-bf28-4627-8406-ae17addeee6c}, !- Schedule Type Limits Name
  ,                                       !- Interpolate to Timestep
  6,                                      !- Hour 1
  0,                                      !- Minute 1
  1,                                      !- Value Until Time 1
  24,                                     !- Hour 2
  0,                                      !- Minute 2
  0;                                      !- Value Until Time 2

OS:Schedule:Day,
  {5add1eac-5340-487b-b6b9-5157b4984dfd}, !- Handle
  Medium Office Electric Equipment Winter Design Day Schedule, !- Name
  ,                                       !- Schedule Type Limits Name
  ,                                       !- Interpolate to Timestep
  24,                                     !- Hour 1
  0,                                      !- Minute 1
  0;                                      !- Value Until Time 1

OS:Schedule:Day,
  {4cf41da7-b244-453c-81ec-14f053512931}, !- Handle
  Medium Office Electric Equipment Winter Design Day Schedule 1, !- Name
  {b859a429-bf28-4627-8406-ae17addeee6c}, !- Schedule Type Limits Name
  ,                                       !- Interpolate to Timestep
  24,                                     !- Hour 1
  0,                                      !- Minute 1
  0;                                      !- Value Until Time 1

OS:Schedule:Rule,
  {58ccb394-7a04-4d75-adb7-e454f53fe2b8}, !- Handle
  Medium Office Electric Equipment Schedule Weekdays Rule, !- Name
  {575bb77c-feca-49ef-a22c-9eccb595f89a}, !- Schedule Ruleset Name
  1,                                      !- Rule Order
  {283b3286-36bf-4404-81b0-cd917547a4df}, !- Day Schedule Name
  ,                                       !- Apply Sunday
  Yes,                                    !- Apply Monday
  Yes,                                    !- Apply Tuesday
  Yes,                                    !- Apply Wednesday
  Yes,                                    !- Apply Thursday
  Yes;                                    !- Apply Friday

OS:Schedule:Day,
  {283b3286-36bf-4404-81b0-cd917547a4df}, !- Handle
  Medium Office Electric Equipment Weekdays Schedule, !- Name
  {b859a429-bf28-4627-8406-ae17addeee6c}, !- Schedule Type Limits Name
  ,                                       !- Interpolate to Timestep
  8,                                      !- Hour 1
  0,                                      !- Minute 1
  0.4,                                    !- Value Until Time 1
  12,                                     !- Hour 2
  0,                                      !- Minute 2
  0.9,                                    !- Value Until Time 2
  13,                                     !- Hour 3
  0,                                      !- Minute 3
  0.8,                                    !- Value Until Time 3
  17,                                     !- Hour 4
  0,                                      !- Minute 4
  0.9,                                    !- Value Until Time 4
  18,                                     !- Hour 5
  0,                                      !- Minute 5
  0.8,                                    !- Value Until Time 5
  20,                                     !- Hour 6
  0,                                      !- Minute 6
  0.6,                                    !- Value Until Time 6
  22,                                     !- Hour 7
  0,                                      !- Minute 7
  0.5,                                    !- Value Until Time 7
  24,                                     !- Hour 8
  0,                                      !- Minute 8
  0.4;                                    !- Value Until Time 8

OS:Schedule:Rule,
  {9ae4c617-9131-4ed0-8487-0e514094d99f}, !- Handle
  Medium Office Electric Equipment Schedule Saturday Rule, !- Name
  {575bb77c-feca-49ef-a22c-9eccb595f89a}, !- Schedule Ruleset Name
  0,                                      !- Rule Order
  {9b863795-aff4-46ed-949c-d46edcaebd08}, !- Day Schedule Name
  ,                                       !- Apply Sunday
  ,                                       !- Apply Monday
  ,                                       !- Apply Tuesday
  ,                                       !- Apply Wednesday