
OS:Version,
  {a50c884d-62bc-4dee-ab79-25d03d8c3015}, !- Handle
  1.5.0;                                  !- Version Identifier

OS:SimulationControl,
  {d5d49e9c-f3b4-49ab-a319-ff05f4c218d1}, !- Handle
  Yes,                                    !- Do Zone Sizing Calculation
  Yes,                                    !- Do System Sizing Calculation
  ,                                       !- Do Plant Sizing Calculation
  No,                                     !- Run Simulation for Sizing Periods
  Yes;                                    !- Run Simulation for Weather File Run Periods

OS:Timestep,
  {bc43f2e1-d3e4-4c7b-8925-db6cacf38d5e}, !- Handle
  6;                                      !- Number of Timesteps per Hour

OS:RunPeriod,
  {59868804-4ea8-4351-b266-d072637777f7}, !- Handle
  Run Period 1,                           !- Name
  1,                                      !- Begin Month
  1,                                      !- Begin Day of Month
  12,                                     !- End Month
  31,                                     !- End Day of Month
  No,                                     !- Use Weather File Holidays and Special Days
  No,                                     !- Use Weather File Daylight Saving Period
  No,                                     !- Apply Weekend Holiday Rule
  Yes,                                    !- Use Weather File Rain Indicators
  Yes,                                    !- Use Weather File Snow Indicators
  1;                                      !- Number of Times Runperiod to be Repeated

OS:SurfaceConvectionAlgorithm:Inside,
  {117250c3-14d0-414e-8ccc-70dd8f657c3e}, !- Handle
  TARP;                                   !- Algorithm

OS:SurfaceConvectionAlgorithm:Outside,
  {62f56f88-04ed-4cf6-b77c-565a040ffc66}, !- Handle
  DOE-2;                                  !- Algorithm

OS:HeatBalanceAlgorithm,
  {cfe2ba50-b845-472d-9fce-521f1fff950b}, !- Handle
  ConductionTransferFunction,             !- Algorithm
  200;                                    !- Surface Temperature Upper Limit {F}

OS:ZoneAirHeatBalanceAlgorithm,
  {6459e9e2-bfbb-4d16-8577-00cc4233f2ab}, !- Handle
  AnalyticalSolution;                     !- Algorithm

OS:ConvergenceLimits,
  {a9363746-6072-48e9-be98-6eadbb8568a8}; !- Handle

OS:ShadowCalculation,
  {aa6b7afb-569b-4c35-ab16-7c25264e61af}, !- Handle
  7,                                      !- Calculation Frequency
  15000;                                  !- Maximum Figures in Shadow Overlap Calculations

OS:Site,
  {bda17936-49ec-41ee-bef8-d453da35d380}, !- Handle
  Site 1,                                 !- Name
  41.77,                                  !- Latitude {deg}
  -87.75,                                 !- Longitude {deg}
  -6,                                     !- Time Zone {hr}
  190,                                    !- Elevation {m}
  ;                                       !- Terrain

OS:Site:GroundTemperature:BuildingSurface,
  {05715711-7d8a-415f-bf54-2dd5c9271979}, !- Handle
  19.527,                                 !- January Ground Temperature {C}
  19.502,                                 !- February Ground Temperature {C}
  19.536,                                 !- March Ground Temperature {C}
  19.598,                                 !- April Ground Temperature {C}
  20.002,                                 !- May Ground Temperature {C}
  21.64,                                  !- June Ground Temperature {C}
  22.225,                                 !- July Ground Temperature {C}
  22.375,                                 !- August Ground Temperature {C}
  21.449,                                 !- September Ground Temperature {C}
  20.121,                                 !- October Ground Temperature {C}
  19.802,                                 !- November Ground Temperature {C}
  19.633;                                 !- December Ground Temperature {C}

OS:Site:WaterMainsTemperature,
  {a0b6ffb9-8064-490a-a33c-fb7efcc03480}, !- Handle
  Correlation,                            !- Calculation Method
  ,                                       !- Temperature Schedule Name
  9.69,                                   !- Annual Average Outdoor Air Temperature {C}
  28.1;                                   !- Maximum Difference In Monthly Average Outdoor Air Temperatures {deltaC}

OS:SizingPeriod:DesignDay,
  {5139498e-aa81-4b23-9001-a44237cc7e18}, !- Handle
  Sizing Period Design Day 1,             !- Name
  -20.6,                                  !- Maximum Dry-Bulb Temperature {C}
  0,                                      !- Daily Dry-Bulb Temperature Range {deltaC}
  -20.6,                                  !- Humidity Indicating Conditions at Maximum Dry-Bulb {BasedOnField A3}
  99063,                                  !- Barometric Pressure {Pa}
  4.9,                                    !- Wind Speed {m/s}
  270,                                    !- Wind Direction {deg}
  0,                                      !- Sky Clearness
  0,                                      !- Rain Indicator
  0,                                      !- Snow Indicator
  21,                                     !- Day of Month
  1,                                      !- Month
  WinterDesignDay,                        !- Day Type
  0,                                      !- Daylight Saving Time Indicator
  WetBulb,                                !- Humidity Indicating Type
  ,                                       !- Humidity Indicating Day Schedule Name
  DefaultMultipliers,                     !- Dry-Bulb Temperature Range Modifier Type
  ,                                       !- Dry-Bulb Temperature Range Modifier Schedule Name
  AshraeClearSky;                         !- Solar Model Indicator

OS:SizingPeriod:DesignDay,
  {2e3ee9e7-a53f-4fc5-8f04-5061780d6680}, !- Handle
  Sizing Period Design Day 2,             !- Name
  33.2,                                   !- Maximum Dry-Bulb Temperature {C}
  10.7,                                   !- Daily Dry-Bulb Temperature Range {deltaC}
  23.8,                                   !- Humidity Indicating Conditions at Maximum Dry-Bulb {BasedOnField A3}
  99063,                                  !- Barometric Pressure {Pa}
  5.3,                                    !- Wind Speed {m/s}
  230,                                    !- Wind Direction {deg}
  1,                                      !- Sky Clearness
  0,                                      !- Rain Indicator
  0,                                      !- Snow Indicator
  21,                                     !- Day of Month
  7,                                      !- Month
  SummerDesignDay,                        !- Day Type
  0,                                      !- Daylight Saving Time Indicator
  WetBulb,                                !- Humidity Indicating Type
  ,                                       !- Humidity Indicating Day Schedule Name
  DefaultMultipliers,                     !- Dry-Bulb Temperature Range Modifier Type
  ,                                       !- Dry-Bulb Temperature Range Modifier Schedule Name
  AshraeClearSky;                         !- Solar Model Indicator

OS:ScheduleTypeLimits,
  {a6fc1822-1a48-466b-9531-37af9cb214e0}, !- Handle
  Temperature,                            !- Name
  -60,                                    !- Lower Limit Value {BasedOnField A4}
  200,                                    !- Upper Limit Value {BasedOnField A4}
  CONTINUOUS,                             !- Numeric Type
  Temperature;                            !- Unit Type

OS:DefaultScheduleSet,
  {7e62d442-23f8-4478-b018-4ef66735089c}, !- Handle
  Default Schedules,                      !- Name
  ,                                       !- Hours of Operation Schedule Name
  {bd10c3ca-1960-4ce3-97ea-aabaab2b8418}, !- Number of People Schedule Name
  {8686f341-32bc-4195-be16-1507c1d95fa2}, !- People Activity Level Schedule Name
  {a02d69f6-18d7-4684-9a46-9f2f813ff712}, !- Lighting Schedule Name
  {f0c0410c-e33b-4b79-98c0-e548995c1515}, !- Electric Equipment Schedule Name
  {52078704-3bb0-4615-960b-b4333e0743a6}, !- Gas Equipment Schedule Name
  {d3ab284b-1af0-4b36-94d0-008d333dd18c}, !- Hot Water Equipment Schedule Name
  {5fe59ae3-e58f-44ee-b0ea-8957f66041a2}, !- Infiltration Schedule Name
  ,                                       !- Steam Equipment Schedule Name
  ;                                       !- Other Equipment Schedule Name

OS:Schedule:Ruleset,
  {bd10c3ca-1960-4ce3-97ea-aabaab2b8418}, !- Handle
  Medium Office Number of People Schedule, !- Name
  {78720229-be70-4103-84c0-bd5634ba4950}, !- Schedule Type Limits Name
  {81216a92-369b-4df0-b8c0-a4f708da9fc9}, !- Default Day Schedule Name
  {8f9591a1-3f60-4266-8d47-a0236aa2bfc2}; !- Summer Design Day Schedule Name

OS:Schedule:Day,
  {81216a92-369b-4df0-b8c0-a4f708da9fc9}, !- Handle
  Medium Office Number of People All Other Days Schedule, !- Name
  {78720229-be70-4103-84c0-bd5634ba4950}, !- Schedule Type Limits Name
  ,                                       !- Interpolate to Timestep
  24,                                     !- Hour 1
  0,                                      !- Minute 1
  0;                                      !- Value Until Time 1

OS:Schedule:Day,
  {2fb9cb95-3816-494e-82db-d9a0b9e2ab54}, !- Handle
  Medium Office Number of People Summer Design Day Schedule, !- Name
  ,                                       !- Schedule Type Limits Name
  ,                                       !- Interpolate to Timestep
  6,                                      !- Hour 1
  0,                                      !- Minute 1
  0,                                      !- Value Until Time 1
  22,                                     !- Hour 2
  0,                                      !- Minute 2
  1,                                      !- Value Until Time 2
  24,                                     !- Hour 3
  0,                                      !- Minute 3
  0.05;                                   !- Value Until Time 3

OS:Schedule:Day,
  {8f9591a1-3f60-4266-8d47-a0236aa2bfc2}, !- Handle
  Medium Office Number of People Summer Design Day Schedule 1, !- Name
  {78720229-be70-4103-84c0-bd5634ba4950}, !- Schedule Type Limits Name
  ,                                       !- Interpolate to Timestep
  6,                                      !- Hour 1
  0,                                      !- Minute 1
  0,                                      !- Value Until Time 1
  22,                                     !- Hour 2
  0,                                      !- Minute 2
  1,                                      !- Value Until Time 2
  24,                                     !- Hour 3
  0,                                      !- Minute 3
  0.05;                                   !- Value Until Time 3

OS:Schedule:Rule,
  {2809b347-afa2-48be-8933-7dfc61c46c03}, !- Handle
  Medium Office Number of People Schedule Weekdays Rule, !- Name
  {bd10c3ca-1960-4ce3-97ea-aabaab2b8418}, !- Schedule Ruleset Name
  1,                                      !- Rule Order
  {fe1cd159-c766-431f-ad39-79bb39fab39d}, !- Day Schedule Name
  ,                                       !- Apply Sunday
  Yes,                                    !- Apply Monday
  Yes,                                    !- Apply Tuesday
  Yes,                                    !- Apply Wednesday
  Yes,                                    !- Apply Thursday
  Yes;                                    !- Apply Friday

OS:Schedule:Day,
  {fe1cd159-c766-431f-ad39-79bb39fab39d}, !- Handle
  Medium Office Number of People Weekdays Schedule, !- Name
  {78720229-be70-4103-84c0-bd5634ba4950}, !- Schedule Type Limits Name
  ,                                       !- Interpolate to Timestep
  6,                                      !- Hour 1
  0,                                      !- Minute 1
  0,                                      !- Value Until Time 1
  7,                                      !- Hour 2
  0,                                      !- Minute 2
  0.1,                                    !- Value Until Time 2
  8,                                      !- Hour 3
  0,                                      !- Minute 3
  0.2,                                    !- Value Until Time 3
  12,                                     !- Hour 4
  0,                                      !- Minute 4
  0.95,                                   !- Value Until Time 4
  13,                                     !- Hour 5
  0,                                      !- Minute 5
  0.5,                                    !- Value Until Time 5
  17,                                     !- Hour 6
  0,                                      !- Minute 6
  0.95,                                   !- Value Until Time 6
  18,                                     !- Hour 7
  0,                                      !- Minute 7
  0.7,                                    !- Value Until Time 7
  20,                                     !- Hour 8
  0,                                      !- Minute 8
  0.4,                                    !- Value Until Time 8
  22,                                     !- Hour 9
  0,                                      !- Minute 9
  0.1,                                    !- Value Until Time 9
  24,                                     !- Hour 10
  0,                                      !- Minute 10
  0.05;                                   !- Value Until Time 10

OS:Schedule:Rule,
  {4b1f0053-d32d-43fd-aff4-6442533a4f08}, !- Handle
  Medium Office Number of People Schedule Saturday Rule, !- Name
  {bd10c3ca-1960-4ce3-97ea-aabaab2b8418}, !- Schedule Ruleset Name
  0,                                      !- Rule Order
  {365a99d2-72fc-4558-b2b2-17d39f7e44a4}, !- Day Schedule Name
  ,                                       !- Apply Sunday
  ,                                       !- Apply Monday
  ,                                       !- Apply Tuesday
  ,                                       !- Apply Wednesday
  ,                                       !- Apply Thursday
  ,                                       !- Apply Friday
  Yes;                                    !- Apply Saturday

OS:Schedule:Day,
  {365a99d2-72fc-4558-b2b2-17d39f7e44a4}, !- Handle
  Medium Office Number of People Saturday Schedule, !- Name
  {78720229-be70-4103-84c0-bd5634ba4950}, !- Schedule Type Limits Name
  ,                                       !- Interpolate to Timestep
  6,                                      !- Hour 1
  0,                                      !- Minute 1
  0,                                      !- Value Until Time 1
  8,                                      !- Hour 2
  0,                                      !- Minute 2
  0.1,                                    !- Value Until Time 2
  14,                                     !- Hour 3
  0,                                      !- Minute 3
  0.5,                                    !- Value Until Time 3
  17,                                     !- Hour 4
  0,                                      !- Minute 4
  0.1,                                    !- Value Until Time 4
  24,                                     !- Hour 5
  0,                                      !- Minute 5
  0;                                      !- Value Until Time 5

OS:ScheduleTypeLimits,
  {78720229-be70-4103-84c0-bd5634ba4950}, !- Handle
  Fractional,                             !- Name
  0,                                      !- Lower Limit Value {BasedOnField A4}
  1,                                      !- Upper Limit Value {BasedOnField A4}
  Continuous;                             !- Numeric Type

OS:Schedule:Ruleset,
  {8686f341-32bc-4195-be16-1507c1d95fa2}, !- Handle
  Medium Office People Activity Level Schedule, !- Name
  {52606dc6-3eb1-4934-a229-a3fb5658054a}, !- Schedule Type Limits Name
  {be85a492-3165-4fc2-b39a-b3ddf0e9f978}; !- Default Day Schedule Name

OS:Schedule:Day,
  {be85a492-3165-4fc2-b39a-b3ddf0e9f978}, !- Handle
  Medium Office People Activity Level All Days Schedule, !- Name
  {52606dc6-3eb1-4934-a229-a3fb5658054a}, !- Schedule Type Limits Name
  ,                                       !- Interpolate to Timestep
  24,                                     !- Hour 1
  0,                                      !- Minute 1
  120;                                    !- Value Until Time 1

OS:ScheduleTypeLimits,
  {52606dc6-3eb1-4934-a229-a3fb5658054a}, !- Handle
  ActivityLevel,                          !- Name
  0,                                      !- Lower Limit Value {BasedOnField A4}
  ,                                       !- Upper Limit Value {BasedOnField A4}
  Continuous,                             !- Numeric Type
  ActivityLevel;                          !- Unit Type

OS:Schedule:Ruleset,
  {a02d69f6-18d7-4684-9a46-9f2f813ff712}, !- Handle
  Medium Office Lighting Schedule,        !- Name
  {78720229-be70-4103-84c0-bd5634ba4950}, !- Schedule Type Limits Name
  {efd671db-c987-49bd-8c6b-cb86709371ea}, !- Default Day Schedule Name
  {93bff074-82d1-4990-a2d0-a50dbb74a9e0}, !- Summer Design Day Schedule Name
  {dd68de6e-5c1d-4361-ad53-b3f3b228113c}; !- Winter Design Day Schedule Name

OS:Schedule:Day,
  {efd671db-c987-49bd-8c6b-cb86709371ea}, !- Handle
  Medium Office Lighting All Other Days Schedule, !- Name
  {78720229-be70-4103-84c0-bd5634ba4950}, !- Schedule Type Limits Name
  ,                                       !- Interpolate to Timestep
  24,                                     !- Hour 1
  0,                                      !- Minute 1
  0.05;                                   !- Value Until Time 1

OS:Schedule:Day,
  {5e41d3b4-6e7c-463e-bbf0-4ef9b95bac07}, !- Handle
  Medium Office Lighting Summer Design Day Schedule, !- Name
  ,                                       !- Schedule Type Limits Name
  ,                                       !- Interpolate to Timestep
  6,                                      !- Hour 1
  0,                                      !- Minute 1
  1,                                      !- Value Until Time 1
  24,                                     !- Hour 2
  0,                                      !- Minute 2
  0;                                      !- Value Until Time 2

OS:Schedule:Day,
  {93bff074-82d1-4990-a2d0-a50dbb74a9e0}, !- Handle
  Medium Office Lighting Summer Design Day Schedule 1, !- Name
  {78720229-be70-4103-84c0-bd5634ba4950}, !- Schedule Type Limits Name
  ,                                       !- Interpolate to Timestep
  6,                                      !- Hour 1
  0,                                      !- Minute 1
  1,                                      !- Value Until Time 1
  24,                                     !- Hour 2
  0,                                      !- Minute 2
  0;                                      !- Value Until Time 2

OS:Schedule:Day,
  {1a21a84e-a685-4464-913a-ba632b983bb7}, !- Handle
  Medium Office Lighting Winter Design Day Schedule, !- Name
  ,                                       !- Schedule Type Limits Name
  ,                                       !- Interpolate to Timestep
  24,                                     !- Hour 1
  0,                                      !- Minute 1
  0;                                      !- Value Until Time 1

OS:Schedule:Day,
  {dd68de6e-5c1d-4361-ad53-b3f3b228113c}, !- Handle
  Medium Office Lighting Winter Design Day Schedule 1, !- Name
  {78720229-be70-4103-84c0-bd5634ba4950}, !- Schedule Type Limits Name
  ,                                       !- Interpolate to Timestep
  24,                                     !- Hour 1
  0,                                      !- Minute 1
  0;                                      !- Value Until Time 1

OS:Schedule:Rule,
  {1686089c-d2ce-4c37-b024-b452c7cbd534}, !- Handle
  Medium Office Lighting Schedule Weekdays Rule, !- Name
  {a02d69f6-18d7-4684-9a46-9f2f813ff712}, !- Schedule Ruleset Name
  1,                                      !- Rule Order
  {74e5dedc-d316-4a53-8223-943af2558f49}, !- Day Schedule Name
  ,                                       !- Apply Sunday
  Yes,                                    !- Apply Monday
  Yes,                                    !- Apply Tuesday
  Yes,                                    !- Apply Wednesday
  Yes,                                    !- Apply Thursday
  Yes;                                    !- Apply Friday

OS:Schedule:Day,
  {74e5dedc-d316-4a53-8223-943af2558f49}, !- Handle
  Medium Office Lighting Weekdays Schedule, !- Name
  {78720229-be70-4103-84c0-bd5634ba4950}, !- Schedule Type Limits Name
  ,                                       !- Interpolate to Timestep
  5,                                      !- Hour 1
  0,                                      !- Minute 1
  0.05,                                   !- Value Until Time 1
  7,                                      !- Hour 2
  0,                                      !- Minute 2
  0.1,                                    !- Value Until Time 2
  8,                                      !- Hour 3
  0,                                      !- Minute 3
  0.3,                                    !- Value Until Time 3
  17,                                     !- Hour 4
  0,                                      !- Minute 4
  0.9,                                    !- Value Until Time 4
  18,                                     !- Hour 5
  0,                                      !- Minute 5
  0.7,                                    !- Value Until Time 5
  20,                                     !- Hour 6
  0,                                      !- Minute 6
  0.5,                                    !- Value Until Time 6
  22,                                     !- Hour 7
  0,                                      !- Minute 7
  0.3,                                    !- Value Until Time 7
  23,                                     !- Hour 8
  0,                                      !- Minute 8
  0.1,                                    !- Value Until Time 8
  24,                                     !- Hour 9
  0,                                      !- Minute 9
  0.05;                                   !- Value Until Time 9

OS:Schedule:Rule,
  {7aa6947e-c124-49b6-a5dd-c127950adba7}, !- Handle
  Medium Office Lighting Schedule Saturday Rule, !- Name
  {a02d69f6-18d7-4684-9a46-9f2f813ff712}, !- Schedule Ruleset Name
  0,                                      !- Rule Order
  {89b0f2fc-2ded-4e37-9a3d-affee641571e}, !- Day Schedule Name
  ,                                       !- Apply Sunday
  ,                                       !- Apply Monday
  ,                                       !- Apply Tuesday
  ,                                       !- Apply Wednesday
  ,                                       !- Apply Thursday
  ,                                       !- Apply Friday
  Yes;                                    !- Apply Saturday

OS:Schedule:Day,
  {89b0f2fc-2ded-4e37-9a3d-affee641571e}, !- Handle
  Medium Office Lighting Saturday Schedule, !- Name
  {78720229-be70-4103-84c0-bd5634ba4950}, !- Schedule Type Limits Name
  ,                                       !- Interpolate to Timestep
  6,                                      !- Hour 1
  0,                                      !- Minute 1
  0.05,                                   !- Value Until Time 1
  8,                                      !- Hour 2
  0,                                      !- Minute 2
  0.1,                                    !- Value Until Time 2
  14,                                     !- Hour 3
  0,                                      !- Minute 3
  0.5,                                    !- Value Until Time 3
  17,                                     !- Hour 4
  0,                                      !- Minute 4
  0.15,                                   !- Value Until Time 4
  24,                                     !- Hour 5
  0,                                      !- Minute 5
  0.05;                                   !- Value Until Time 5

OS:Schedule:Ruleset,
  {f0c0410c-e33b-4b79-98c0-e548995c1515}, !- Handle
  Medium Office Electric Equipment Schedule, !- Name
  {78720229-be70-4103-84c0-bd5634ba4950}, !- Schedule Type Limits Name
  {ddef35b6-0571-4f24-91f6-71db2c01dbf1}, !- Default Day Schedule Name
  {5a39aabf-0b8c-4257-991f-85d9c3e6280a}, !- Summer Design Day Schedule Name
  {2e3a80da-ca95-4d9a-b632-1f5680478b34}; !- Winter Design Day Schedule Name

OS:Schedule:Day,
  {ddef35b6-0571-4f24-91f6-71db2c01dbf1}, !- Handle
  Medium Office Electric Equipment All Other Days Schedule, !- Name
  {78720229-be70-4103-84c0-bd5634ba4950}, !- Schedule Type Limits Name
  ,                                       !- Interpolate to Timestep
  24,                                     !- Hour 1
  0,                                      !- Minute 1
  0.3;                                    !- Value Until Time 1

OS:Schedule:Day,
  {b0c0a570-0a09-43ba-9530-1c8a5c9a26af}, !- Handle
  Medium Office Electric Equipment Summer Design Day Schedule, !- Name
  ,                                       !- Schedule Type Limits Name
  ,                                       !- Interpolate to Timestep
  6,                                      !- Hour 1
  0,                                      !- Minute 1
  1,                                      !- Value Until Time 1
  24,                                     !- Hour 2
  0,                                      !- Minute 2
  0;                                      !- Value Until Time 2

OS:Schedule:Day,
  {5a39aabf-0b8c-4257-991f-85d9c3e6280a}, !- Handle
  Medium Office Electric Equipment Summer Design Day Schedule 1, !- Name
  {78720229-be70-4103-84c0-bd5634ba4950}, !- Schedule Type Limits Name
  ,                                       !- Interpolate to Timestep
  6,                                      !- Hour 1
  0,                                      !- Minute 1
  1,                                      !- Value Until Time 1
  24,                                     !- Hour 2
  0,                                      !- Minute 2
  0;                                      !- Value Until Time 2

OS:Schedule:Day,
  {a5bc4a4a-9076-43eb-bd3f-a0af246e614e}, !- Handle
  Medium Office Electric Equipment Winter Design Day Schedule, !- Name
  ,                                       !- Schedule Type Limits Name
  ,                                       !- Interpolate to Timestep
  24,                                     !- Hour 1
  0,                                      !- Minute 1
  0;                                      !- Value Until Time 1

OS:Schedule:Day,
  {2e3a80da-ca95-4d9a-b632-1f5680478b34}, !- Handle
  Medium Office Electric Equipment Winter Design Day Schedule 1, !- Name
  {78720229-be70-4103-84c0-bd5634ba4950}, !- Schedule Type Limits Name
  ,                                       !- Interpolate to Timestep
  24,                                     !- Hour 1
  0,                                      !- Minute 1
  0;                                      !- Value Until Time 1

OS:Schedule:Rule,
  {d6513936-0e34-421c-8ac0-834069f372c4}, !- Handle
  Medium Office Electric Equipment Schedule Weekdays Rule, !- Name
  {f0c0410c-e33b-4b79-98c0-e548995c1515}, !- Schedule Ruleset Name
  1,                                      !- Rule Order
  {ded98afe-1ec1-4a13-9541-b5457853802d}, !- Day Schedule Name
  ,                                       !- Apply Sunday
  Yes,                                    !- Apply Monday
  Yes,                                    !- Apply Tuesday
  Yes,                                    !- Apply Wednesday
  Yes,                                    !- Apply Thursday
  Yes;                                    !- Apply Friday

OS:Schedule:Day,
  {ded98afe-1ec1-4a13-9541-b5457853802d}, !- Handle
  Medium Office Electric Equipment Weekdays Schedule, !- Name
  {78720229-be70-4103-84c0-bd5634ba4950}, !- Schedule Type Limits Name
  ,                                       !- Interpolate to Timestep
  8,                                      !- Hour 1
  0,                                      !- Minute 1
  0.4,                                    !- Value Until Time 1
  12,                                     !- Hour 2
  0,                                      !- Minute 2
  0.9,                                    !- Value Until Time 2
  13,                                     !- Hour 3
  0,                                      !- Minute 3
  0.8,                                    !- Value Until Time 3
  17,                                     !- Hour 4
  0,                                      !- Minute 4
  0.9,                                    !- Value Until Time 4
  18,                                     !- Hour 5
  0,                                      !- Minute 5
  0.8,                                    !- Value Until Time 5
  20,                                     !- Hour 6
  0,                                      !- Minute 6
  0.6,                                    !- Value Until Time 6
  22,                                     !- Hour 7
  0,                                      !- Minute 7
  0.5,                                    !- Value Until Time 7
  24,                                     !- Hour 8
  0,                                      !- Minute 8
  0.4;                                    !- Value Until Time 8

OS:Schedule:Rule,
  {6e8ccf7e-520e-4672-a2b5-0245d4374029}, !- Handle
  Medium Office Electric Equipment Schedule Saturday Rule, !- Name
  {f0c0410c-e33b-4b79-98c0-e548995c1515}, !- Schedule Ruleset Name
  0,                                      !- Rule Order
  {37d6ed91-0399-4a22-a0b2-758f043873bd}, !- Day Schedule Name
  ,                                       !- Apply Sunday
  ,                                       !- Apply Monday
  ,                                       !- Apply Tuesday
  ,                                       !- Apply Wednesday