
OS:Version,
  {6c41ceb4-8d3a-471a-8fc0-9ef369c2eed8}, !- Handle
  3.3.0;                                  !- Version Identifier

OS:Coil:Heating:DX:MultiSpeed,
  {bec0b269-2eeb-48be-86b0-7673343ddc74}, !- Handle
  Coil Heating DX Multi Speed 1,          !- Name
  {7b64c754-5701-4cbd-bc71-47ba78dfaa76}, !- Availability Schedule Name
  ,                                       !- Air Inlet Node Name
  ,                                       !- Air Outlet Node Name
  -8,                                     !- Minimum Outdoor Dry-Bulb Temperature for Compressor Operation {C}
  ,                                       !- Outdoor Dry-Bulb Temperature to Turn On Compressor {C}
  0,                                      !- Crankcase Heater Capacity {W}
  10,                                     !- Maximum Outdoor Dry-Bulb Temperature for Crankcase Heater Operation {C}
  ,                                       !- Defrost Energy Input Ratio Function of Temperature Curve Name
  5,                                      !- Maximum Outdoor Dry-Bulb Temperature for Defrost Operation {C}
  Resistive,                              !- Defrost Strategy
  OnDemand,                               !- Defrost Control
  0.058333,                               !- Defrost Time Period Fraction
  autosize,                               !- Resistive Defrost Heater Capacity {W}
  No,                                     !- Apply Part Load Fraction to Speeds Greater than 1
  NaturalGas,                             !- Fuel Type
  4,                                      !- Region number for Calculating HSPF
  {fe22ace6-9401-4aa0-90bf-ee06b7d7efb3}; !- Stage Data List

OS:Schedule:Constant,
  {7b64c754-5701-4cbd-bc71-47ba78dfaa76}, !- Handle
  Always On Discrete,                     !- Name
  {98252bc9-2f1e-4ebe-8504-99aab6cf6da6}, !- Schedule Type Limits Name
  1;                                      !- Value

OS:ScheduleTypeLimits,
  {98252bc9-2f1e-4ebe-8504-99aab6cf6da6}, !- Handle
  OnOff,                                  !- Name
  0,                                      !- Lower Limit Value
  1,                                      !- Upper Limit Value
  Discrete,                               !- Numeric Type
  Availability;                           !- Unit Type

OS:ModelObjectList,
  {fe22ace6-9401-4aa0-90bf-ee06b7d7efb3}, !- Handle
  Coil Heating DX Multi Speed 1 Stage Data List, !- Name
  {1a13fc21-a7ce-4ec7-abb4-aa69a0de4c2f}, !- Model Object 1
  {51bb0518-a6ce-4c9e-99c1-b214b3025237}, !- Model Object 2
  {92587e3a-c1bc-47f5-977b-503b3cc36260}, !- Model Object 3
  {61ad8af8-cdf3-4a7a-a279-375dbd113f10}; !- Model Object 4

OS:Coil:Heating:DX:MultiSpeed:StageData,
  {1a13fc21-a7ce-4ec7-abb4-aa69a0de4c2f}, !- Handle
  autosize,                               !- Gross Rated Heating Capacity {W}
  2.75,                                   !- Gross Rated Heating COP {W/W}
  autosize,                               !- Rated Air Flow Rate {m3/s}
  773.3,                                  !- Rated Supply Air Fan Power Per Volume Flow Rate {W/(m3/s)}
  {92480225-ee7a-4abc-86ef-eb51ae1cb568}, !- Heating Capacity Function of Temperature Curve Name
  {02ddab66-60fe-436c-ad6d-52131afc3c16}, !- Heating Capacity Function of Flow Fraction Curve Name
  {bf0bf5f5-609b-4381-8444-3a2ef0f50c26}, !- Energy Input Ratio Function of Temperature Curve Name
  {7e5d883a-2229-453e-a4bb-15bcb2e43633}, !- Energy Input Ratio Function of Flow Fraction Curve Name
  {47aeadd3-d20f-4880-8815-4cfaae6dbe3e}, !- Part Load Fraction Correlation Curve Name
  0.2,                                    !- Rated Waste Heat Fraction of Power Input {dimensionless}
  {a37a93bb-b3cb-49e5-bfb7-988be85143ce}; !- Waste Heat Function of Temperature Curve Name

OS:Curve:Biquadratic,
  {92480225-ee7a-4abc-86ef-eb51ae1cb568}, !- Handle
  Curve Biquadratic 1,                    !- Name
  0.760523473,                            !- Coefficient1 Constant
  0.007531702,                            !- Coefficient2 x
  -0.000288398,                           !- Coefficient3 x**2
  0.021653033,                            !- Coefficient4 y
  3.29133e-05,                            !- Coefficient5 y**2
  0.00014862,                             !- Coefficient6 x*y
  18.33333,                               !- Minimum Value of x
  23.88889,                               !- Maximum Value of x
  -13.88889,                              !- Minimum Value of y
  19.44444;                               !- Maximum Value of y

OS:Curve:Quadratic,
  {02ddab66-60fe-436c-ad6d-52131afc3c16}, !- Handle
  Curve Quadratic 1,                      !- Name
  0.752130847,                            !- Coefficient1 Constant
  0.437552514,                            !- Coefficient2 x
  -0.189683361,                           !- Coefficient3 x**2
  0.7,                                    !- Minimum Value of x
  1.1;                                    !- Maximum Value of x

OS:Curve:Biquadratic,
  {bf0bf5f5-609b-4381-8444-3a2ef0f50c26}, !- Handle
  Curve Biquadratic 2,                    !- Name
  0.750128109,                            !- Coefficient1 Constant
  0.002298944,                            !- Coefficient2 x
  0.000953927,                            !- Coefficient3 x**2
  -0.008327043,                           !- Coefficient4 y
  0.001016058,                            !- Coefficient5 y**2
  -0.001433855,                           !- Coefficient6 x*y
  18.33333,                               !- Minimum Value of x
  23.88889,                               !- Maximum Value of x
  -13.88889,                              !- Minimum Value of y
  19.44444;                               !- Maximum Value of y

OS:Curve:Quadratic,
  {7e5d883a-2229-453e-a4bb-15bcb2e43633}, !- Handle
  Curve Quadratic 2,                      !- Name
  1.853909301,                            !- Coefficient1 Constant
  -1.411203778,                           !- Coefficient2 x
  0.557294478,                            !- Coefficient3 x**2
  0.7,                                    !- Minimum Value of x
  1.1;                                    !- Maximum Value of x

OS:Curve:Quadratic,
  {47aeadd3-d20f-4880-8815-4cfaae6dbe3e}, !- Handle
  Curve Quadratic 3,                      !- Name
  0.85,                                   !- Coefficient1 Constant
  0.15,                                   !- Coefficient2 x
  0,                                      !- Coefficient3 x**2
  0,                                      !- Minimum Value of x
  1;                                      !- Maximum Value of x

OS:Curve:Biquadratic,
  {a37a93bb-b3cb-49e5-bfb7-988be85143ce}, !- Handle
  Curve Biquadratic 3,                    !- Name
  1,                                      !- Coefficient1 Constant
  0,                                      !- Coefficient2 x
  0,                                      !- Coefficient3 x**2
  0,                                      !- Coefficient4 y
  0,                                      !- Coefficient5 y**2
  0,                                      !- Coefficient6 x*y
  0,                                      !- Minimum Value of x
  50,                                     !- Maximum Value of x
  0,                                      !- Minimum Value of y
  50;                                     !- Maximum Value of y

OS:Coil:Heating:DX:MultiSpeed:StageData,
  {51bb0518-a6ce-4c9e-99c1-b214b3025237}, !- Handle
  autosize,                               !- Gross Rated Heating Capacity {W}
  2.75,                                   !- Gross Rated Heating COP {W/W}
  autosize,                               !- Rated Air Flow Rate {m3/s}
  773.3,                                  !- Rated Supply Air Fan Power Per Volume Flow Rate {W/(m3/s)}
  {e80c5fbd-363f-4570-bc5c-58ab689db677}, !- Heating Capacity Function of Temperature Curve Name
  {c0e934ae-f9b6-4062-80fa-14f8fba32a61}, !- Heating Capacity Function of Flow Fraction Curve Name
  {67f26f6a-ab78-466c-9d61-74f3db516f69}, !- Energy Input Ratio Function of Temperature Curve Name
  {347334c5-928e-4fed-9c76-34cbb96e6cfb}, !- Energy Input Ratio Function of Flow Fraction Curve Name
  {98cc0349-60b0-4604-8469-77ba47bc3e69}, !- Part Load Fraction Correlation Curve Name
  0.2,                                    !- Rated Waste Heat Fraction of Power Input {dimensionless}
  {a16229d8-d552-4939-b52e-0a3672643381}; !- Waste Heat Function of Temperature Curve Name

OS:Curve:Biquadratic,
  {e80c5fbd-363f-4570-bc5c-58ab689db677}, !- Handle
  Curve Biquadratic 4,                    !- Name
  0.760523473,                            !- Coefficient1 Constant
  0.007531702,                            !- Coefficient2 x
  -0.000288398,                           !- Coefficient3 x**2
  0.021653033,                            !- Coefficient4 y
  3.29133e-05,                            !- Coefficient5 y**2
  0.00014862,                             !- Coefficient6 x*y
  18.33333,                               !- Minimum Value of x
  23.88889,                               !- Maximum Value of x
  -13.88889,                              !- Minimum Value of y
  19.44444;                               !- Maximum Value of y

OS:Curve:Quadratic,
  {c0e934ae-f9b6-4062-80fa-14f8fba32a61}, !- Handle
  Curve Quadratic 4,                      !- Name
  0.752130847,                            !- Coefficient1 Constant
  0.437552514,                            !- Coefficient2 x
  -0.189683361,                           !- Coefficient3 x**2
  0.7,                                    !- Minimum Value of x
  1.1;                                    !- Maximum Value of x

OS:Curve:Biquadratic,
  {67f26f6a-ab78-466c-9d61-74f3db516f69}, !- Handle
  Curve Biquadratic 5,                    !- Name
  0.750128109,                            !- Coefficient1 Constant
  0.002298944,                            !- Coefficient2 x
  0.000953927,                            !- Coefficient3 x**2
  -0.008327043,                           !- Coefficient4 y
  0.001016058,                            !- Coefficient5 y**2
  -0.001433855,                           !- Coefficient6 x*y
  18.33333,                               !- Minimum Value of x
  23.88889,                               !- Maximum Value of x
  -13.88889,                              !- Minimum Value of y
  19.44444;                               !- Maximum Value of y

OS:Curve:Quadratic,
  {347334c5-928e-4fed-9c76-34cbb96e6cfb}, !- Handle
  Curve Quadratic 5,                      !- Name
  1.853909301,                            !- Coefficient1 Constant
  -1.411203778,                           !- Coefficient2 x
  0.557294478,                            !- Coefficient3 x**2
  0.7,                                    !- Minimum Value of x
  1.1;                                    !- Maximum Value of x

OS:Curve:Quadratic,
  {98cc0349-60b0-4604-8469-77ba47bc3e69}, !- Handle
  Curve Quadratic 6,                      !- Name
  0.85,                                   !- Coefficient1 Constant
  0.15,                                   !- Coefficient2 x
  0,                                      !- Coefficient3 x**2
  0,                                      !- Minimum Value of x
  1;                                      !- Maximum Value of x

OS:Curve:Biquadratic,
  {a16229d8-d552-4939-b52e-0a3672643381}, !- Handle
  Curve Biquadratic 6,                    !- Name
  1,                                      !- Coefficient1 Constant
  0,                                      !- Coefficient2 x
  0,                                      !- Coefficient3 x**2
  0,                                      !- Coefficient4 y
  0,                                      !- Coefficient5 y**2
  0,                                      !- Coefficient6 x*y
  0,                                      !- Minimum Value of x
  50,                                     !- Maximum Value of x
  0,                                      !- Minimum Value of y
  50;                                     !- Maximum Value of y

OS:Coil:Heating:DX:MultiSpeed:StageData,
  {92587e3a-c1bc-47f5-977b-503b3cc36260}, !- Handle
  autosize,                               !- Gross Rated Heating Capacity {W}
  2.75,                                   !- Gross Rated Heating COP {W/W}
  autosize,                               !- Rated Air Flow Rate {m3/s}
  773.3,                                  !- Rated Supply Air Fan Power Per Volume Flow Rate {W/(m3/s)}
  {01bdc8bd-294f-466f-9aef-483c984e0f26}, !- Heating Capacity Function of Temperature Curve Name
  {6923014d-06d2-449e-8a8f-b17b8ba07a1f}, !- Heating Capacity Function of Flow Fraction Curve Name
  {2e258627-cde9-4c17-9448-49f0f9ed69bd}, !- Energy Input Ratio Function of Temperature Curve Name
  {cac9a86b-8b4a-4935-a1f0-989e9bddf8fa}, !- Energy Input Ratio Function of Flow Fraction Curve Name
  {5e664cc8-97f8-423d-9552-061e56462d46}, !- Part Load Fraction Correlation Curve Name
  0.2,                                    !- Rated Waste Heat Fraction of Power Input {dimensionless}
  {0828918d-be6f-4b8f-8b26-4eea70d9530c}; !- Waste Heat Function of Temperature Curve Name

OS:Curve:Biquadratic,
  {01bdc8bd-294f-466f-9aef-483c984e0f26}, !- Handle
  Curve Biquadratic 7,                    !- Name
  0.760523473,                            !- Coefficient1 Constant
  0.007531702,                            !- Coefficient2 x
  -0.000288398,                           !- Coefficient3 x**2
  0.021653033,                            !- Coefficient4 y
  3.29133e-05,                            !- Coefficient5 y**2
  0.00014862,                             !- Coefficient6 x*y
  18.33333,                               !- Minimum Value of x
  23.88889,                               !- Maximum Value of x
  -13.88889,                              !- Minimum Value of y
  19.44444;                               !- Maximum Value of y

OS:Curve:Quadratic,
  {6923014d-06d2-449e-8a8f-b17b8ba07a1f}, !- Handle
  Curve Quadratic 7,                      !- Name
  0.752130847,                            !- Coefficient1 Constant
  0.437552514,                            !- Coefficient2 x
  -0.189683361,                           !- Coefficient3 x**2
  0.7,                                    !- Minimum Value of x
  1.1;                                    !- Maximum Value of x

OS:Curve:Biquadratic,
  {2e258627-cde9-4c17-9448-49f0f9ed69bd}, !- Handle
  Curve Biquadratic 8,                    !- Name
  0.750128109,                            !- Coefficient1 Constant
  0.002298944,                            !- Coefficient2 x
  0.000953927,                            !- Coefficient3 x**2
  -0.008327043,                           !- Coefficient4 y
  0.001016058,                            !- Coefficient5 y**2
  -0.001433855,                           !- Coefficient6 x*y
  18.33333,                               !- Minimum Value of x
  23.88889,                               !- Maximum Value of x
  -13.88889,                              !- Minimum Value of y
  19.44444;                               !- Maximum Value of y

OS:Curve:Quadratic,
  {cac9a86b-8b4a-4935-a1f0-989e9bddf8fa}, !- Handle
  Curve Quadratic 8,                      !- Name
  1.853909301,                            !- Coefficient1 Constant
  -1.411203778,                           !- Coefficient2 x
  0.557294478,                            !- Coefficient3 x**2
  0.7,                                    !- Minimum Value of x
  1.1;                                    !- Maximum Value of x

OS:Curve:Quadratic,
  {5e664cc8-97f8-423d-9552-061e56462d46}, !- Handle
  Curve Quadratic 9,                      !- Name
  0.85,                                   !- Coefficient1 Constant
  0.15,                                   !- Coefficient2 x
  0,                                      !- Coefficient3 x**2
  0,                                      !- Minimum Value of x
  1;                                      !- Maximum Value of x

OS:Curve:Biquadratic,
  {0828918d-be6f-4b8f-8b26-4eea70d9530c}, !- Handle
  Curve Biquadratic 9,                    !- Name
  1,                                      !- Coefficient1 Constant
  0,                                      !- Coefficient2 x
  0,                                      !- Coefficient3 x**2
  0,                                      !- Coefficient4 y
  0,                                      !- Coefficient5 y**2
  0,                                      !- Coefficient6 x*y
  0,                                      !- Minimum Value of x
  50,                                     !- Maximum Value of x
  0,                                      !- Minimum Value of y
  50;                                     !- Maximum Value of y

OS:Coil:Heating:DX:MultiSpeed:StageData,
  {61ad8af8-cdf3-4a7a-a279-375dbd113f10}, !- Handle
  autosize,                               !- Gross Rated Heating Capacity {W}
  2.75,                                   !- Gross Rated Heating COP {W/W}
  autosize,                               !- Rated Air Flow Rate {m3/s}
  773.3,                                  !- Rated Supply Air Fan Power Per Volume Flow Rate {W/(m3/s)}
  {9a255373-d75a-4e9d-94b3-7e4ed69fb33f}, !- Heating Capacity Function of Temperature Curve Name
  {304112a3-2912-4c1f-a4fe-6c3645eac6e3}, !- Heating Capacity Function of Flow Fraction Curve Name
  {efd0b602-6b06-4fd9-b08a-c5466853f00b}, !- Energy Input Ratio Function of Temperature Curve Name
  {63b2394a-e02b-43a4-b7b7-985dce4712ea}, !- Energy Input Ratio Function of Flow Fraction Curve Name
  {b4800e93-1363-45ca-8785-81377dbfe614}, !- Part Load Fraction Correlation Curve Name
  0.2,                                    !- Rated Waste Heat Fraction of Power Input {dimensionless}
  {cb1af4aa-2fe2-4557-bea3-1c2ee23d2982}; !- Waste Heat Function of Temperature Curve Name

OS:Curve:Biquadratic,
  {9a255373-d75a-4e9d-94b3-7e4ed69fb33f}, !- Handle
  Curve Biquadratic 10,                   !- Name
  0.760523473,                            !- Coefficient1 Constant
  0.007531702,                            !- Coefficient2 x
  -0.000288398,                           !- Coefficient3 x**2
  0.021653033,                            !- Coefficient4 y
  3.29133e-05,                            !- Coefficient5 y**2
  0.00014862,                             !- Coefficient6 x*y
  18.33333,                               !- Minimum Value of x
  23.88889,                               !- Maximum Value of x
  -13.88889,                              !- Minimum Value of y
  19.44444;                               !- Maximum Value of y

OS:Curve:Quadratic,
  {304112a3-2912-4c1f-a4fe-6c3645eac6e3}, !- Handle
  Curve Quadratic 10,                     !- Name
  0.752130847,                            !- Coefficient1 Constant
  0.437552514,                            !- Coefficient2 x
  -0.189683361,                           !- Coefficient3 x**2
  0.7,                                    !- Minimum Value of x
  1.1;                                    !- Maximum Value of x

OS:Curve:Biquadratic,
  {efd0b602-6b06-4fd9-b08a-c5466853f00b}, !- Handle
  Curve Biquadratic 11,                   !- Name
  0.750128109,                            !- Coefficient1 Constant
  0.002298944,                            !- Coefficient2 x
  0.000953927,                            !- Coefficient3 x**2
  -0.008327043,                           !- Coefficient4 y
  0.001016058,                            !- Coefficient5 y**2
  -0.001433855,                           !- Coefficient6 x*y
  18.33333,                               !- Minimum Value of x
  23.88889,                               !- Maximum Value of x
  -13.88889,                              !- Minimum Value of y
  19.44444;                               !- Maximum Value of y

OS:Curve:Quadratic,
  {63b2394a-e02b-43a4-b7b7-985dce4712ea}, !- Handle
  Curve Quadratic 11,                     !- Name
  1.853909301,                            !- Coefficient1 Constant
  -1.411203778,                           !- Coefficient2 x
  0.557294478,                            !- Coefficient3 x**2
  0.7,                                    !- Minimum Value of x
  1.1;                                    !- Maximum Value of x

OS:Curve:Quadratic,
  {b4800e93-1363-45ca-8785-81377dbfe614}, !- Handle
  Curve Quadratic 12,                     !- Name
  0.85,                                   !- Coefficient1 Constant
  0.15,                                   !- Coefficient2 x
  0,                                      !- Coefficient3 x**2
  0,                                      !- Minimum Value of x
  1;                                      !- Maximum Value of x

OS:Curve:Biquadratic,
  {cb1af4aa-2fe2-4557-bea3-1c2ee23d2982}, !- Handle
  Curve Biquadratic 12,                   !- Name
  1,                                      !- Coefficient1 Constant
  0,                                      !- Coefficient2 x
  0,                                      !- Coefficient3 x**2
  0,                                      !- Coefficient4 y
  0,                                      !- Coefficient5 y**2
  0,                                      !- Coefficient6 x*y
  0,                                      !- Minimum Value of x
  50,                                     !- Maximum Value of x
  0,                                      !- Minimum Value of y
  50;                                     !- Maximum Value of y

