
OS:Version,
  {db1615b2-e23e-45f2-9bc8-d48ce47ec890}, !- Handle
  3.3.0;                                  !- Version Identifier

OS:Coil:Heating:DX:MultiSpeed,
  {91a4ffba-f416-45c8-bc8a-61bd121ddf5c}, !- Handle
  Coil Heating DX Multi Speed 1,          !- Name
  {21e1fb25-e4b9-41d5-ab7e-0019b19dcc46}, !- Availability Schedule Name
  ,                                       !- Air Inlet Node Name
  ,                                       !- Air Outlet Node Name
  -8,                                     !- Minimum Outdoor Dry-Bulb Temperature for Compressor Operation {C}
  ,                                       !- Outdoor Dry-Bulb Temperature to Turn On Compressor {C}
  0,                                      !- Crankcase Heater Capacity {W}
  10,                                     !- Maximum Outdoor Dry-Bulb Temperature for Crankcase Heater Operation {C}
  ,                                       !- Defrost Energy Input Ratio Function of Temperature Curve Name
  5,                                      !- Maximum Outdoor Dry-Bulb Temperature for Defrost Operation {C}
  Resistive,                              !- Defrost Strategy
  OnDemand,                               !- Defrost Control
  0.058333,                               !- Defrost Time Period Fraction
  autosize,                               !- Resistive Defrost Heater Capacity {W}
  No,                                     !- Apply Part Load Fraction to Speeds Greater than 1
  NaturalGas,                             !- Fuel Type
  4,                                      !- Region number for Calculating HSPF
  {9265e541-926b-4025-8333-af48591a8aca}; !- Stage Data List

OS:Schedule:Constant,
  {21e1fb25-e4b9-41d5-ab7e-0019b19dcc46}, !- Handle
  Always On Discrete,                     !- Name
  {38a073b2-c349-4332-8db8-cb5df4ab065d}, !- Schedule Type Limits Name
  1;                                      !- Value

OS:ScheduleTypeLimits,
  {38a073b2-c349-4332-8db8-cb5df4ab065d}, !- Handle
  OnOff,                                  !- Name
  0,                                      !- Lower Limit Value
  1,                                      !- Upper Limit Value
  Discrete,                               !- Numeric Type
  Availability;                           !- Unit Type

OS:ModelObjectList,
  {9265e541-926b-4025-8333-af48591a8aca}, !- Handle
  Coil Heating DX Multi Speed 1 Stage Data List, !- Name
  {81552480-1c69-4186-a7ef-a0e8afec6520}, !- Model Object 1
  {3dae6897-4f47-4dee-9bb9-051ac3dd06f7}, !- Model Object 2
  {5e285db6-eb15-46dd-a71a-235c806a4e28}, !- Model Object 3
  {d10a0855-04b9-472b-8c8f-437509e6dc08}; !- Model Object 4

OS:Coil:Heating:DX:MultiSpeed:StageData,
  {81552480-1c69-4186-a7ef-a0e8afec6520}, !- Handle
  autosize,                               !- Gross Rated Heating Capacity {W}
  2.75,                                   !- Gross Rated Heating COP {W/W}
  autosize,                               !- Rated Air Flow Rate {m3/s}
  773.3,                                  !- Rated Supply Air Fan Power Per Volume Flow Rate {W/(m3/s)}
  {e6d23bfc-cc05-4ac0-9665-159932041711}, !- Heating Capacity Function of Temperature Curve Name
  {683bd6fd-10e2-4e02-8a71-2198fef66be8}, !- Heating Capacity Function of Flow Fraction Curve Name
  {02051b19-b97f-4cc4-88c9-ffbafcdd1915}, !- Energy Input Ratio Function of Temperature Curve Name
  {c6c33e90-09ac-4ba3-9719-1d1e1c2c59bf}, !- Energy Input Ratio Function of Flow Fraction Curve Name
  {60564a8e-ea74-4eb0-af8c-01fcdf8cef01}, !- Part Load Fraction Correlation Curve Name
  0.2,                                    !- Rated Waste Heat Fraction of Power Input {dimensionless}
  {d9cfd179-0f53-4d70-9111-0ac222bc8dee}; !- Waste Heat Function of Temperature Curve Name

OS:Curve:Biquadratic,
  {e6d23bfc-cc05-4ac0-9665-159932041711}, !- Handle
  Curve Biquadratic 1,                    !- Name
  0.760523473,                            !- Coefficient1 Constant
  0.007531702,                            !- Coefficient2 x
  -0.000288398,                           !- Coefficient3 x**2
  0.021653033,                            !- Coefficient4 y
  3.29133e-05,                            !- Coefficient5 y**2
  0.00014862,                             !- Coefficient6 x*y
  18.33333,                               !- Minimum Value of x
  23.88889,                               !- Maximum Value of x
  -13.88889,                              !- Minimum Value of y
  19.44444;                               !- Maximum Value of y

OS:Curve:Quadratic,
  {683bd6fd-10e2-4e02-8a71-2198fef66be8}, !- Handle
  Curve Quadratic 1,                      !- Name
  0.752130847,                            !- Coefficient1 Constant
  0.437552514,                            !- Coefficient2 x
  -0.189683361,                           !- Coefficient3 x**2
  0.7,                                    !- Minimum Value of x
  1.1;                                    !- Maximum Value of x

OS:Curve:Biquadratic,
  {02051b19-b97f-4cc4-88c9-ffbafcdd1915}, !- Handle
  Curve Biquadratic 2,                    !- Name
  0.750128109,                            !- Coefficient1 Constant
  0.002298944,                            !- Coefficient2 x
  0.000953927,                            !- Coefficient3 x**2
  -0.008327043,                           !- Coefficient4 y
  0.001016058,                            !- Coefficient5 y**2
  -0.001433855,                           !- Coefficient6 x*y
  18.33333,                               !- Minimum Value of x
  23.88889,                               !- Maximum Value of x
  -13.88889,                              !- Minimum Value of y
  19.44444;                               !- Maximum Value of y

OS:Curve:Quadratic,
  {c6c33e90-09ac-4ba3-9719-1d1e1c2c59bf}, !- Handle
  Curve Quadratic 2,                      !- Name
  1.853909301,                            !- Coefficient1 Constant
  -1.411203778,                           !- Coefficient2 x
  0.557294478,                            !- Coefficient3 x**2
  0.7,                                    !- Minimum Value of x
  1.1;                                    !- Maximum Value of x

OS:Curve:Quadratic,
  {60564a8e-ea74-4eb0-af8c-01fcdf8cef01}, !- Handle
  Curve Quadratic 3,                      !- Name
  0.85,                                   !- Coefficient1 Constant
  0.15,                                   !- Coefficient2 x
  0,                                      !- Coefficient3 x**2
  0,                                      !- Minimum Value of x
  1;                                      !- Maximum Value of x

OS:Curve:Biquadratic,
  {d9cfd179-0f53-4d70-9111-0ac222bc8dee}, !- Handle
  Curve Biquadratic 3,                    !- Name
  1,                                      !- Coefficient1 Constant
  0,                                      !- Coefficient2 x
  0,                                      !- Coefficient3 x**2
  0,                                      !- Coefficient4 y
  0,                                      !- Coefficient5 y**2
  0,                                      !- Coefficient6 x*y
  0,                                      !- Minimum Value of x
  50,                                     !- Maximum Value of x
  0,                                      !- Minimum Value of y
  50;                                     !- Maximum Value of y

OS:Coil:Heating:DX:MultiSpeed:StageData,
  {3dae6897-4f47-4dee-9bb9-051ac3dd06f7}, !- Handle
  autosize,                               !- Gross Rated Heating Capacity {W}
  2.75,                                   !- Gross Rated Heating COP {W/W}
  autosize,                               !- Rated Air Flow Rate {m3/s}
  773.3,                                  !- Rated Supply Air Fan Power Per Volume Flow Rate {W/(m3/s)}
  {021b67f4-dec5-4900-a7b7-3fde2680ca13}, !- Heating Capacity Function of Temperature Curve Name
  {71f86efc-6a80-4abe-a471-2084ae503080}, !- Heating Capacity Function of Flow Fraction Curve Name
  {ca5d8064-743c-484d-84bc-5d6952107d0d}, !- Energy Input Ratio Function of Temperature Curve Name
  {3dc095ea-78cb-44bb-8c19-bc4160830557}, !- Energy Input Ratio Function of Flow Fraction Curve Name
  {69db3107-566c-495f-92fe-eee8696779f0}, !- Part Load Fraction Correlation Curve Name
  0.2,                                    !- Rated Waste Heat Fraction of Power Input {dimensionless}
  {b916357e-92fa-414d-abb7-023c9bb07b23}; !- Waste Heat Function of Temperature Curve Name

OS:Curve:Biquadratic,
  {021b67f4-dec5-4900-a7b7-3fde2680ca13}, !- Handle
  Curve Biquadratic 4,                    !- Name
  0.760523473,                            !- Coefficient1 Constant
  0.007531702,                            !- Coefficient2 x
  -0.000288398,                           !- Coefficient3 x**2
  0.021653033,                            !- Coefficient4 y
  3.29133e-05,                            !- Coefficient5 y**2
  0.00014862,                             !- Coefficient6 x*y
  18.33333,                               !- Minimum Value of x
  23.88889,                               !- Maximum Value of x
  -13.88889,                              !- Minimum Value of y
  19.44444;                               !- Maximum Value of y

OS:Curve:Quadratic,
  {71f86efc-6a80-4abe-a471-2084ae503080}, !- Handle
  Curve Quadratic 4,                      !- Name
  0.752130847,                            !- Coefficient1 Constant
  0.437552514,                            !- Coefficient2 x
  -0.189683361,                           !- Coefficient3 x**2
  0.7,                                    !- Minimum Value of x
  1.1;                                    !- Maximum Value of x

OS:Curve:Biquadratic,
  {ca5d8064-743c-484d-84bc-5d6952107d0d}, !- Handle
  Curve Biquadratic 5,                    !- Name
  0.750128109,                            !- Coefficient1 Constant
  0.002298944,                            !- Coefficient2 x
  0.000953927,                            !- Coefficient3 x**2
  -0.008327043,                           !- Coefficient4 y
  0.001016058,                            !- Coefficient5 y**2
  -0.001433855,                           !- Coefficient6 x*y
  18.33333,                               !- Minimum Value of x
  23.88889,                               !- Maximum Value of x
  -13.88889,                              !- Minimum Value of y
  19.44444;                               !- Maximum Value of y

OS:Curve:Quadratic,
  {3dc095ea-78cb-44bb-8c19-bc4160830557}, !- Handle
  Curve Quadratic 5,                      !- Name
  1.853909301,                            !- Coefficient1 Constant
  -1.411203778,                           !- Coefficient2 x
  0.557294478,                            !- Coefficient3 x**2
  0.7,                                    !- Minimum Value of x
  1.1;                                    !- Maximum Value of x

OS:Curve:Quadratic,
  {69db3107-566c-495f-92fe-eee8696779f0}, !- Handle
  Curve Quadratic 6,                      !- Name
  0.85,                                   !- Coefficient1 Constant
  0.15,                                   !- Coefficient2 x
  0,                                      !- Coefficient3 x**2
  0,                                      !- Minimum Value of x
  1;                                      !- Maximum Value of x

OS:Curve:Biquadratic,
  {b916357e-92fa-414d-abb7-023c9bb07b23}, !- Handle
  Curve Biquadratic 6,                    !- Name
  1,                                      !- Coefficient1 Constant
  0,                                      !- Coefficient2 x
  0,                                      !- Coefficient3 x**2
  0,                                      !- Coefficient4 y
  0,                                      !- Coefficient5 y**2
  0,                                      !- Coefficient6 x*y
  0,                                      !- Minimum Value of x
  50,                                     !- Maximum Value of x
  0,                                      !- Minimum Value of y
  50;                                     !- Maximum Value of y

OS:Coil:Heating:DX:MultiSpeed:StageData,
  {5e285db6-eb15-46dd-a71a-235c806a4e28}, !- Handle
  autosize,                               !- Gross Rated Heating Capacity {W}
  2.75,                                   !- Gross Rated Heating COP {W/W}
  autosize,                               !- Rated Air Flow Rate {m3/s}
  773.3,                                  !- Rated Supply Air Fan Power Per Volume Flow Rate {W/(m3/s)}
  {8e4566f9-1b36-4214-a659-9861c9dc7488}, !- Heating Capacity Function of Temperature Curve Name
  {cfea777d-b020-44e9-bacb-cec6180051ee}, !- Heating Capacity Function of Flow Fraction Curve Name
  {19f5998b-d7d4-4683-9981-38a23c26593e}, !- Energy Input Ratio Function of Temperature Curve Name
  {4c82ead3-2846-477e-bbb2-2659db709d19}, !- Energy Input Ratio Function of Flow Fraction Curve Name
  {ca075264-4a05-46a9-afc5-824783a9c1c4}, !- Part Load Fraction Correlation Curve Name
  0.2,                                    !- Rated Waste Heat Fraction of Power Input {dimensionless}
  {22367d14-13c9-44b3-b1d1-a949208e67a1}; !- Waste Heat Function of Temperature Curve Name

OS:Curve:Biquadratic,
  {8e4566f9-1b36-4214-a659-9861c9dc7488}, !- Handle
  Curve Biquadratic 7,                    !- Name
  0.760523473,                            !- Coefficient1 Constant
  0.007531702,                            !- Coefficient2 x
  -0.000288398,                           !- Coefficient3 x**2
  0.021653033,                            !- Coefficient4 y
  3.29133e-05,                            !- Coefficient5 y**2
  0.00014862,                             !- Coefficient6 x*y
  18.33333,                               !- Minimum Value of x
  23.88889,                               !- Maximum Value of x
  -13.88889,                              !- Minimum Value of y
  19.44444;                               !- Maximum Value of y

OS:Curve:Quadratic,
  {cfea777d-b020-44e9-bacb-cec6180051ee}, !- Handle
  Curve Quadratic 7,                      !- Name
  0.752130847,                            !- Coefficient1 Constant
  0.437552514,                            !- Coefficient2 x
  -0.189683361,                           !- Coefficient3 x**2
  0.7,                                    !- Minimum Value of x
  1.1;                                    !- Maximum Value of x

OS:Curve:Biquadratic,
  {19f5998b-d7d4-4683-9981-38a23c26593e}, !- Handle
  Curve Biquadratic 8,                    !- Name
  0.750128109,                            !- Coefficient1 Constant
  0.002298944,                            !- Coefficient2 x
  0.000953927,                            !- Coefficient3 x**2
  -0.008327043,                           !- Coefficient4 y
  0.001016058,                            !- Coefficient5 y**2
  -0.001433855,                           !- Coefficient6 x*y
  18.33333,                               !- Minimum Value of x
  23.88889,                               !- Maximum Value of x
  -13.88889,                              !- Minimum Value of y
  19.44444;                               !- Maximum Value of y

OS:Curve:Quadratic,
  {4c82ead3-2846-477e-bbb2-2659db709d19}, !- Handle
  Curve Quadratic 8,                      !- Name
  1.853909301,                            !- Coefficient1 Constant
  -1.411203778,                           !- Coefficient2 x
  0.557294478,                            !- Coefficient3 x**2
  0.7,                                    !- Minimum Value of x
  1.1;                                    !- Maximum Value of x

OS:Curve:Quadratic,
  {ca075264-4a05-46a9-afc5-824783a9c1c4}, !- Handle
  Curve Quadratic 9,                      !- Name
  0.85,                                   !- Coefficient1 Constant
  0.15,                                   !- Coefficient2 x
  0,                                      !- Coefficient3 x**2
  0,                                      !- Minimum Value of x
  1;                                      !- Maximum Value of x

OS:Curve:Biquadratic,
  {22367d14-13c9-44b3-b1d1-a949208e67a1}, !- Handle
  Curve Biquadratic 9,                    !- Name
  1,                                      !- Coefficient1 Constant
  0,                                      !- Coefficient2 x
  0,                                      !- Coefficient3 x**2
  0,                                      !- Coefficient4 y
  0,                                      !- Coefficient5 y**2
  0,                                      !- Coefficient6 x*y
  0,                                      !- Minimum Value of x
  50,                                     !- Maximum Value of x
  0,                                      !- Minimum Value of y
  50;                                     !- Maximum Value of y

OS:Coil:Heating:DX:MultiSpeed:StageData,
  {d10a0855-04b9-472b-8c8f-437509e6dc08}, !- Handle
  autosize,                               !- Gross Rated Heating Capacity {W}
  2.75,                                   !- Gross Rated Heating COP {W/W}
  autosize,                               !- Rated Air Flow Rate {m3/s}
  773.3,                                  !- Rated Supply Air Fan Power Per Volume Flow Rate {W/(m3/s)}
  {c7ce716c-21ce-4760-a91d-3aaa3a7452c9}, !- Heating Capacity Function of Temperature Curve Name
  {b94b8bf8-8b70-4f45-a6ce-39133d7eb098}, !- Heating Capacity Function of Flow Fraction Curve Name
  {eb14e24e-4c41-45b3-9a3b-94f4a5d22ef7}, !- Energy Input Ratio Function of Temperature Curve Name
  {ec5950c2-7803-4bc5-a2d6-85d42e0c7a19}, !- Energy Input Ratio Function of Flow Fraction Curve Name
  {65d95cd9-bd9e-46d9-8318-7e93d6180fc4}, !- Part Load Fraction Correlation Curve Name
  0.2,                                    !- Rated Waste Heat Fraction of Power Input {dimensionless}
  {d30eb200-7ae2-4263-a0b8-c9cd4b316f42}; !- Waste Heat Function of Temperature Curve Name

OS:Curve:Biquadratic,
  {c7ce716c-21ce-4760-a91d-3aaa3a7452c9}, !- Handle
  Curve Biquadratic 10,                   !- Name
  0.760523473,                            !- Coefficient1 Constant
  0.007531702,                            !- Coefficient2 x
  -0.000288398,                           !- Coefficient3 x**2
  0.021653033,                            !- Coefficient4 y
  3.29133e-05,                            !- Coefficient5 y**2
  0.00014862,                             !- Coefficient6 x*y
  18.33333,                               !- Minimum Value of x
  23.88889,                               !- Maximum Value of x
  -13.88889,                              !- Minimum Value of y
  19.44444;                               !- Maximum Value of y

OS:Curve:Quadratic,
  {b94b8bf8-8b70-4f45-a6ce-39133d7eb098}, !- Handle
  Curve Quadratic 10,                     !- Name
  0.752130847,                            !- Coefficient1 Constant
  0.437552514,                            !- Coefficient2 x
  -0.189683361,                           !- Coefficient3 x**2
  0.7,                                    !- Minimum Value of x
  1.1;                                    !- Maximum Value of x

OS:Curve:Biquadratic,
  {eb14e24e-4c41-45b3-9a3b-94f4a5d22ef7}, !- Handle
  Curve Biquadratic 11,                   !- Name
  0.750128109,                            !- Coefficient1 Constant
  0.002298944,                            !- Coefficient2 x
  0.000953927,                            !- Coefficient3 x**2
  -0.008327043,                           !- Coefficient4 y
  0.001016058,                            !- Coefficient5 y**2
  -0.001433855,                           !- Coefficient6 x*y
  18.33333,                               !- Minimum Value of x
  23.88889,                               !- Maximum Value of x
  -13.88889,                              !- Minimum Value of y
  19.44444;                               !- Maximum Value of y

OS:Curve:Quadratic,
  {ec5950c2-7803-4bc5-a2d6-85d42e0c7a19}, !- Handle
  Curve Quadratic 11,                     !- Name
  1.853909301,                            !- Coefficient1 Constant
  -1.411203778,                           !- Coefficient2 x
  0.557294478,                            !- Coefficient3 x**2
  0.7,                                    !- Minimum Value of x
  1.1;                                    !- Maximum Value of x

OS:Curve:Quadratic,
  {65d95cd9-bd9e-46d9-8318-7e93d6180fc4}, !- Handle
  Curve Quadratic 12,                     !- Name
  0.85,                                   !- Coefficient1 Constant
  0.15,                                   !- Coefficient2 x
  0,                                      !- Coefficient3 x**2
  0,                                      !- Minimum Value of x
  1;                                      !- Maximum Value of x

OS:Curve:Biquadratic,
  {d30eb200-7ae2-4263-a0b8-c9cd4b316f42}, !- Handle
  Curve Biquadratic 12,                   !- Name
  1,                                      !- Coefficient1 Constant
  0,                                      !- Coefficient2 x
  0,                                      !- Coefficient3 x**2
  0,                                      !- Coefficient4 y
  0,                                      !- Coefficient5 y**2
  0,                                      !- Coefficient6 x*y
  0,                                      !- Minimum Value of x
  50,                                     !- Maximum Value of x
  0,                                      !- Minimum Value of y
  50;                                     !- Maximum Value of y

OS:Coil:Cooling:DX:MultiSpeed,
  {dc3722e5-16a7-4b70-8cfa-8cecf8aee727}, !- Handle
  Coil Cooling DX Multi Speed 1,          !- Name
  ,                                       !- Availability Schedule
  ,                                       !- Air Inlet Node
  ,                                       !- Air Outlet Node
  ,                                       !- Condenser Air Inlet Node
  AirCooled,                              !- Condenser Type
  -25,                                    !- Minimum Outdoor Dry-Bulb Temperature for Compressor Operation {C}
  ,                                       !- Supply Water Storage Tank
  ,                                       !- Condensate Collection Water Storage Tank
  No,                                     !- Apply Part Load Fraction to Speeds Greater than 1
  ,                                       !- Apply Latent Degradation to Speeds Greater than 1
  0,                                      !- Crankcase Heater Capacity {W}
  10,                                     !- Maximum Outdoor Dry-Bulb Temperature for Crankcase Heater Operation {C}
  0,                                      !- Basin Heater Capacity {W/K}
  2,                                      !- Basin Heater Setpoint Temperature {C}
  ,                                       !- Basin Heater Operating Schedule
  NaturalGas,                             !- Fuel Type
  {d78e102a-ea96-4e7c-940a-d93b8845afbb}, !- Stage 1
  {ce413bc0-fb9e-4ad3-8936-f0504f0eb299}, !- Stage 2
  {387fe0f0-30e9-4027-9e66-d7578bd5aa9d}, !- Stage 3
  {e6c4061a-edf1-4c8c-83eb-c2aef833c783}; !- Stage 4

OS:Coil:Cooling:DX:MultiSpeed:StageData,
  {d78e102a-ea96-4e7c-940a-d93b8845afbb}, !- Handle
  Coil Cooling DX Multi Speed Stage Data 1, !- Name
  autosize,                               !- Gross Rated Total Cooling Capacity {W}
  autosize,                               !- Gross Rated Sensible Heat Ratio
  3,                                      !- Gross Rated Cooling COP {W/W}
  autosize,                               !- Rated Air Flow Rate {m3/s}
  773.3,                                  !- Rated Evaporator Fan Power Per Volume Flow Rate {W/(m3/s)}
  {6b300694-7db7-40f5-b11e-8caccf402976}, !- Total Cooling Capacity Function of Temperature Curve
  {882ad859-444a-4c2f-8dac-93e87eec752e}, !- Total Cooling Capacity Function of Flow Fraction Curve
  {9663120e-9feb-4ae7-9a17-00a34e46b433}, !- Energy Input Ratio Function of Temperature Curve
  {1df3f6f2-109b-4039-be82-764f9f6d0721}, !- Energy Input Ratio Function of Flow Fraction Curve
  {ceee85ed-0ef5-45c4-a400-f162340550cb}, !- Part Load Fraction Correlation Curve
  0,                                      !- Nominal Time for Condensate Removal to Begin {s}
  0,                                      !- Ratio of Initial Moisture Evaporation Rate and Steady State Latent Capacity {dimensionless}
  0,                                      !- Maximum Cycling Rate {cycles/hr}
  0,                                      !- Latent Capacity Time Constant {s}
  0.5,                                    !- Rated Waste Heat Fraction of Power Input {dimensionless}
  {3fd49668-eee1-4086-8926-a3791a691407}, !- Waste Heat Function of Temperature Curve
  0.9,                                    !- Evaporative Condenser Effectiveness {dimensionless}
  autosize,                               !- Evaporative Condenser Air Flow Rate {m3/s}
  autosize;                               !- Rated Evaporative Condenser Pump Power Consumption {W}

OS:Curve:Biquadratic,
  {6b300694-7db7-40f5-b11e-8caccf402976}, !- Handle
  Curve Biquadratic 13,                   !- Name
  0.766956,                               !- Coefficient1 Constant
  0.0107756,                              !- Coefficient2 x
  -4.14703e-05,                           !- Coefficient3 x**2
  0.00134961,                             !- Coefficient4 y
  -0.000261144,                           !- Coefficient5 y**2
  0.000457488,                            !- Coefficient6 x*y
  17,                                     !- Minimum Value of x
  22,                                     !- Maximum Value of x
  13,                                     !- Minimum Value of y
  46;                                     !- Maximum Value of y

OS:Curve:Quadratic,
  {882ad859-444a-4c2f-8dac-93e87eec752e}, !- Handle
  Curve Quadratic 13,                     !- Name
  0.8,                                    !- Coefficient1 Constant
  0.2,                                    !- Coefficient2 x
  0,                                      !- Coefficient3 x**2
  0.5,                                    !- Minimum Value of x
  1.5;                                    !- Maximum Value of x

OS:Curve:Biquadratic,
  {9663120e-9feb-4ae7-9a17-00a34e46b433}, !- Handle
  Curve Biquadratic 14,                   !- Name
  0.297145,                               !- Coefficient1 Constant
  0.0430933,                              !- Coefficient2 x
  -0.000748766,                           !- Coefficient3 x**2
  0.00597727,                             !- Coefficient4 y
  0.000482112,                            !- Coefficient5 y**2
  -0.000956448,                           !- Coefficient6 x*y
  17,                                     !- Minimum Value of x
  22,                                     !- Maximum Value of x
  13,                                     !- Minimum Value of y
  46;                                     !- Maximum Value of y

OS:Curve:Quadratic,
  {1df3f6f2-109b-4039-be82-764f9f6d0721}, !- Handle
  Curve Quadratic 14,                     !- Name
  1.156,                                  !- Coefficient1 Constant
  -0.1816,                                !- Coefficient2 x
  0.0256,                                 !- Coefficient3 x**2
  0.5,                                    !- Minimum Value of x
  1.5;                                    !- Maximum Value of x

OS:Curve:Quadratic,
  {ceee85ed-0ef5-45c4-a400-f162340550cb}, !- Handle
  Curve Quadratic 15,                     !- Name
  0.75,                                   !- Coefficient1 Constant
  0.25,                                   !- Coefficient2 x
  0,                                      !- Coefficient3 x**2
  0,                                      !- Minimum Value of x
  1;                                      !- Maximum Value of x

OS:Curve:Biquadratic,
  {3fd49668-eee1-4086-8926-a3791a691407}, !- Handle
  Curve Biquadratic 15,                   !- Name
  1,                                      !- Coefficient1 Constant
  0,                                      !- Coefficient2 x
  0,                                      !- Coefficient3 x**2
  0,                                      !- Coefficient4 y
  0,                                      !- Coefficient5 y**2
  0,                                      !- Coefficient6 x*y
  0,                                      !- Minimum Value of x
  0,                                      !- Maximum Value of x
  0,                                      !- Minimum Value of y
  0;                                      !- Maximum Value of y

OS:Coil:Cooling:DX:MultiSpeed:StageData,
  {ce413bc0-fb9e-4ad3-8936-f0504f0eb299}, !- Handle
  Coil Cooling DX Multi Speed Stage Data 2, !- Name
  autosize,                               !- Gross Rated Total Cooling Capacity {W}
  autosize,                               !- Gross Rated Sensible Heat Ratio
  3,                                      !- Gross Rated Cooling COP {W/W}
  autosize,                               !- Rated Air Flow Rate {m3/s}
  773.3,                                  !- Rated Evaporator Fan Power Per Volume Flow Rate {W/(m3/s)}
  {1aeb5ce5-f2d0-49f4-af55-83b74fc85fcc}, !- Total Cooling Capacity Function of Temperature Curve
  {25fd5bed-3785-4a62-8a5d-fc3220789699}, !- Total Cooling Capacity Function of Flow Fraction Curve
  {d8550b94-b6b5-44b6-a575-618fe906de7a}, !- Energy Input Ratio Function of Temperature Curve
  {6b4d757f-69e7-4882-98b6-a543f3d63496}, !- Energy Input Ratio Function of Flow Fraction Curve
  {f52071fc-ecda-4d51-b633-06d115825173}, !- Part Load Fraction Correlation Curve
  0,                                      !- Nominal Time for Condensate Removal to Begin {s}
  0,                                      !- Ratio of Initial Moisture Evaporation Rate and Steady State Latent Capacity {dimensionless}
  0,                                      !- Maximum Cycling Rate {cycles/hr}
  0,                                      !- Latent Capacity Time Constant {s}
  0.5,                                    !- Rated Waste Heat Fraction of Power Input {dimensionless}