
OS:Version,
  {7b82faa9-05fa-4b13-a3dc-d1230e838923}, !- Handle
  1.11.0;                                 !- Version Identifier

OS:SimulationControl,
  {0899148f-ad86-44b9-abde-4089c6ebd145}, !- Handle
  Yes,                                    !- Do Zone Sizing Calculation
  Yes,                                    !- Do System Sizing Calculation
  ,                                       !- Do Plant Sizing Calculation
  No,                                     !- Run Simulation for Sizing Periods
  Yes;                                    !- Run Simulation for Weather File Run Periods

OS:Timestep,
  {1a176e3f-68e6-4e2d-863a-1684ac48ccaa}, !- Handle
  6;                                      !- Number of Timesteps per Hour

OS:RunPeriod,
  {3ac6a9c9-fab8-496d-8ee6-84cb5d0fd615}, !- Handle
  Run Period 1,                           !- Name
  1,                                      !- Begin Month
  1,                                      !- Begin Day of Month
  12,                                     !- End Month
  31,                                     !- End Day of Month
  No,                                     !- Use Weather File Holidays and Special Days
  No,                                     !- Use Weather File Daylight Saving Period
  No,                                     !- Apply Weekend Holiday Rule
  Yes,                                    !- Use Weather File Rain Indicators
  Yes,                                    !- Use Weather File Snow Indicators
  1;                                      !- Number of Times Runperiod to be Repeated

OS:SurfaceConvectionAlgorithm:Inside,
  {677f3f89-33e4-415c-ac82-f4f806c0d79f}, !- Handle
  TARP;                                   !- Algorithm

OS:SurfaceConvectionAlgorithm:Outside,
  {a8aaabaf-b438-4e7a-b6e9-dffdbc62f0c1}, !- Handle
  DOE-2;                                  !- Algorithm

OS:HeatBalanceAlgorithm,
  {b8df07cc-c724-4d40-8eaa-20fd5ea3f8a5}, !- Handle
  ConductionTransferFunction,             !- Algorithm
  200;                                    !- Surface Temperature Upper Limit {C}

OS:ZoneAirHeatBalanceAlgorithm,
  {beca710b-2b2d-46b2-9414-d4fb080a32a5}, !- Handle
  ThirdOrderBackwardDifference;           !- Algorithm

OS:ConvergenceLimits,
  {a07b3a85-639e-4af7-beb2-22824049dcbc}, !- Handle
  1;                                      !- Minimum System Timestep {minutes}

OS:ShadowCalculation,
  {b2bb8298-8015-4303-b5ed-16df28d1ab8b}, !- Handle
  20,                                     !- Calculation Frequency
  15000;                                  !- Maximum Figures in Shadow Overlap Calculations

OS:Site,
  {ff078c86-f730-407e-afe8-bcc0422acfec}, !- Handle
  Site 1,                                 !- Name
  41.77,                                  !- Latitude {deg}
  -87.75,                                 !- Longitude {deg}
  -6,                                     !- Time Zone {hr}
  190,                                    !- Elevation {m}
  ;                                       !- Terrain

OS:Site:GroundTemperature:BuildingSurface,
  {ccc9917b-6107-409a-a7f0-41e055047af9}, !- Handle
  19.527,                                 !- January Ground Temperature {C}
  19.502,                                 !- February Ground Temperature {C}
  19.536,                                 !- March Ground Temperature {C}
  19.598,                                 !- April Ground Temperature {C}
  20.002,                                 !- May Ground Temperature {C}
  21.64,                                  !- June Ground Temperature {C}
  22.225,                                 !- July Ground Temperature {C}
  22.375,                                 !- August Ground Temperature {C}
  21.449,                                 !- September Ground Temperature {C}
  20.121,                                 !- October Ground Temperature {C}
  19.802,                                 !- November Ground Temperature {C}
  19.633;                                 !- December Ground Temperature {C}

OS:Site:WaterMainsTemperature,
  {aad19bf0-368a-4d23-ba2e-1393d5cc2c3c}, !- Handle
  Correlation,                            !- Calculation Method
  ,                                       !- Temperature Schedule Name
  9.69,                                   !- Annual Average Outdoor Air Temperature {C}
  28.1;                                   !- Maximum Difference In Monthly Average Outdoor Air Temperatures {deltaC}

OS:SizingPeriod:DesignDay,
  {afb44256-8fb8-45a4-9827-dda7c9b164a6}, !- Handle
  Sizing Period Design Day 1,             !- Name
  -20.6,                                  !- Maximum Dry-Bulb Temperature {C}
  0,                                      !- Daily Dry-Bulb Temperature Range {deltaC}
  -20.6,                                  !- Humidity Indicating Conditions at Maximum Dry-Bulb
  99063,                                  !- Barometric Pressure {Pa}
  4.9,                                    !- Wind Speed {m/s}
  270,                                    !- Wind Direction {deg}
  0,                                      !- Sky Clearness
  0,                                      !- Rain Indicator
  0,                                      !- Snow Indicator
  21,                                     !- Day of Month
  1,                                      !- Month
  WinterDesignDay,                        !- Day Type
  0,                                      !- Daylight Saving Time Indicator
  WetBulb,                                !- Humidity Indicating Type
  ,                                       !- Humidity Indicating Day Schedule Name
  DefaultMultipliers,                     !- Dry-Bulb Temperature Range Modifier Type
  ,                                       !- Dry-Bulb Temperature Range Modifier Schedule Name
  AshraeClearSky;                         !- Solar Model Indicator

OS:SizingPeriod:DesignDay,
  {64423d15-6d16-40da-9e45-3e09d993151d}, !- Handle
  Sizing Period Design Day 2,             !- Name
  33.2,                                   !- Maximum Dry-Bulb Temperature {C}
  10.7,                                   !- Daily Dry-Bulb Temperature Range {deltaC}
  23.8,                                   !- Humidity Indicating Conditions at Maximum Dry-Bulb
  99063,                                  !- Barometric Pressure {Pa}
  5.3,                                    !- Wind Speed {m/s}
  230,                                    !- Wind Direction {deg}
  1,                                      !- Sky Clearness
  0,                                      !- Rain Indicator
  0,                                      !- Snow Indicator
  21,                                     !- Day of Month
  7,                                      !- Month
  SummerDesignDay,                        !- Day Type
  0,                                      !- Daylight Saving Time Indicator
  WetBulb,                                !- Humidity Indicating Type
  ,                                       !- Humidity Indicating Day Schedule Name
  DefaultMultipliers,                     !- Dry-Bulb Temperature Range Modifier Type
  ,                                       !- Dry-Bulb Temperature Range Modifier Schedule Name
  AshraeClearSky;                         !- Solar Model Indicator

OS:ScheduleTypeLimits,
  {d763a77e-f113-4cfa-babc-7291a8950920}, !- Handle
  Temperature,                            !- Name
  -60,                                    !- Lower Limit Value
  200,                                    !- Upper Limit Value
  CONTINUOUS,                             !- Numeric Type
  Temperature;                            !- Unit Type

OS:DefaultScheduleSet,
  {60c16ce2-80dc-4c31-9382-5a84d2fd96d6}, !- Handle
  Default Schedules,                      !- Name
  ,                                       !- Hours of Operation Schedule Name
  {45dd9279-9d36-4f56-a281-48d6c04a26cb}, !- Number of People Schedule Name
  {44989db8-f7c6-45ac-9cdd-aae854e8945e}, !- People Activity Level Schedule Name
  {d6916597-2509-45a7-965c-2138981236f0}, !- Lighting Schedule Name
  {8eb5673b-8172-49cb-9cf6-b689147b30d2}, !- Electric Equipment Schedule Name
  {41f73f43-c091-4d81-bbac-5779342819c2}, !- Gas Equipment Schedule Name
  {1e2f22cf-e8f8-461c-b271-905e49669de6}, !- Hot Water Equipment Schedule Name
  {e51b14e0-1f6d-434e-9979-d7984aa18409}, !- Infiltration Schedule Name
  ,                                       !- Steam Equipment Schedule Name
  ;                                       !- Other Equipment Schedule Name

OS:Schedule:Ruleset,
  {45dd9279-9d36-4f56-a281-48d6c04a26cb}, !- Handle
  Medium Office Number of People Schedule, !- Name
  {e4370783-a9cf-4069-bc5f-af85db7f1d34}, !- Schedule Type Limits Name
  {8081d0c0-8cb4-404f-a498-ebb61e94965a}, !- Default Day Schedule Name
  {960349ed-f70c-4ee5-93a6-1d747ac85814}; !- Summer Design Day Schedule Name

OS:Schedule:Day,
  {8081d0c0-8cb4-404f-a498-ebb61e94965a}, !- Handle
  Medium Office Number of People All Other Days Schedule, !- Name
  {e4370783-a9cf-4069-bc5f-af85db7f1d34}, !- Schedule Type Limits Name
  ,                                       !- Interpolate to Timestep
  24,                                     !- Hour 1
  0,                                      !- Minute 1
  0;                                      !- Value Until Time 1

OS:Schedule:Day,
  {40d7d2a3-00e8-4ce2-bd39-5a86691159ca}, !- Handle
  Medium Office Number of People Summer Design Day Schedule, !- Name
  ,                                       !- Schedule Type Limits Name
  ,                                       !- Interpolate to Timestep
  6,                                      !- Hour 1
  0,                                      !- Minute 1
  0,                                      !- Value Until Time 1
  22,                                     !- Hour 2
  0,                                      !- Minute 2
  1,                                      !- Value Until Time 2
  24,                                     !- Hour 3
  0,                                      !- Minute 3
  0.05;                                   !- Value Until Time 3

OS:Schedule:Day,
  {960349ed-f70c-4ee5-93a6-1d747ac85814}, !- Handle
  Medium Office Number of People Summer Design Day Schedule 1, !- Name
  {e4370783-a9cf-4069-bc5f-af85db7f1d34}, !- Schedule Type Limits Name
  ,                                       !- Interpolate to Timestep
  6,                                      !- Hour 1
  0,                                      !- Minute 1
  0,                                      !- Value Until Time 1
  22,                                     !- Hour 2
  0,                                      !- Minute 2
  1,                                      !- Value Until Time 2
  24,                                     !- Hour 3
  0,                                      !- Minute 3
  0.05;                                   !- Value Until Time 3

OS:Schedule:Rule,
  {31ad5b01-1e4d-4001-a89c-78b7750b8989}, !- Handle
  Medium Office Number of People Schedule Weekdays Rule, !- Name
  {45dd9279-9d36-4f56-a281-48d6c04a26cb}, !- Schedule Ruleset Name
  1,                                      !- Rule Order
  {f52c5f42-41dc-4d8b-bfcc-9fa21d7353b0}, !- Day Schedule Name
  ,                                       !- Apply Sunday
  Yes,                                    !- Apply Monday
  Yes,                                    !- Apply Tuesday
  Yes,                                    !- Apply Wednesday
  Yes,                                    !- Apply Thursday
  Yes;                                    !- Apply Friday

OS:Schedule:Day,
  {f52c5f42-41dc-4d8b-bfcc-9fa21d7353b0}, !- Handle
  Medium Office Number of People Weekdays Schedule, !- Name
  {e4370783-a9cf-4069-bc5f-af85db7f1d34}, !- Schedule Type Limits Name
  ,                                       !- Interpolate to Timestep
  6,                                      !- Hour 1
  0,                                      !- Minute 1
  0,                                      !- Value Until Time 1
  7,                                      !- Hour 2
  0,                                      !- Minute 2
  0.1,                                    !- Value Until Time 2
  8,                                      !- Hour 3
  0,                                      !- Minute 3
  0.2,                                    !- Value Until Time 3
  12,                                     !- Hour 4
  0,                                      !- Minute 4
  0.95,                                   !- Value Until Time 4
  13,                                     !- Hour 5
  0,                                      !- Minute 5
  0.5,                                    !- Value Until Time 5
  17,                                     !- Hour 6
  0,                                      !- Minute 6
  0.95,                                   !- Value Until Time 6
  18,                                     !- Hour 7
  0,                                      !- Minute 7
  0.7,                                    !- Value Until Time 7
  20,                                     !- Hour 8
  0,                                      !- Minute 8
  0.4,                                    !- Value Until Time 8
  22,                                     !- Hour 9
  0,                                      !- Minute 9
  0.1,                                    !- Value Until Time 9
  24,                                     !- Hour 10
  0,                                      !- Minute 10
  0.05;                                   !- Value Until Time 10

OS:Schedule:Rule,
  {519f0626-1076-4764-ab76-55fda0d76c91}, !- Handle
  Medium Office Number of People Schedule Saturday Rule, !- Name
  {45dd9279-9d36-4f56-a281-48d6c04a26cb}, !- Schedule Ruleset Name
  0,                                      !- Rule Order
  {50638fc1-0905-4db6-b3c9-ba735b46c0de}, !- Day Schedule Name
  ,                                       !- Apply Sunday
  ,                                       !- Apply Monday
  ,                                       !- Apply Tuesday
  ,                                       !- Apply Wednesday
  ,                                       !- Apply Thursday
  ,                                       !- Apply Friday
  Yes;                                    !- Apply Saturday

OS:Schedule:Day,
  {50638fc1-0905-4db6-b3c9-ba735b46c0de}, !- Handle
  Medium Office Number of People Saturday Schedule, !- Name
  {e4370783-a9cf-4069-bc5f-af85db7f1d34}, !- Schedule Type Limits Name
  ,                                       !- Interpolate to Timestep
  6,                                      !- Hour 1
  0,                                      !- Minute 1
  0,                                      !- Value Until Time 1
  8,                                      !- Hour 2
  0,                                      !- Minute 2
  0.1,                                    !- Value Until Time 2
  14,                                     !- Hour 3
  0,                                      !- Minute 3
  0.5,                                    !- Value Until Time 3
  17,                                     !- Hour 4
  0,                                      !- Minute 4
  0.1,                                    !- Value Until Time 4
  24,                                     !- Hour 5
  0,                                      !- Minute 5
  0;                                      !- Value Until Time 5

OS:ScheduleTypeLimits,
  {e4370783-a9cf-4069-bc5f-af85db7f1d34}, !- Handle
  Fractional,                             !- Name
  0,                                      !- Lower Limit Value
  1,                                      !- Upper Limit Value
  Continuous;                             !- Numeric Type

OS:Schedule:Ruleset,
  {44989db8-f7c6-45ac-9cdd-aae854e8945e}, !- Handle
  Medium Office People Activity Level Schedule, !- Name
  {e7683adf-94b1-4d87-8c9a-00eacc10bb42}, !- Schedule Type Limits Name
  {81ccd634-c867-45ec-bcd9-9262fe9838fa}; !- Default Day Schedule Name

OS:Schedule:Day,
  {81ccd634-c867-45ec-bcd9-9262fe9838fa}, !- Handle
  Medium Office People Activity Level All Days Schedule, !- Name
  {e7683adf-94b1-4d87-8c9a-00eacc10bb42}, !- Schedule Type Limits Name
  ,                                       !- Interpolate to Timestep
  24,                                     !- Hour 1
  0,                                      !- Minute 1
  120;                                    !- Value Until Time 1

OS:ScheduleTypeLimits,
  {e7683adf-94b1-4d87-8c9a-00eacc10bb42}, !- Handle
  ActivityLevel,                          !- Name
  0,                                      !- Lower Limit Value
  ,                                       !- Upper Limit Value
  Continuous,                             !- Numeric Type
  ActivityLevel;                          !- Unit Type

OS:Schedule:Ruleset,
  {d6916597-2509-45a7-965c-2138981236f0}, !- Handle
  Medium Office Lighting Schedule,        !- Name
  {e4370783-a9cf-4069-bc5f-af85db7f1d34}, !- Schedule Type Limits Name
  {2c8b652c-9003-4824-9a41-497efccff0bd}, !- Default Day Schedule Name
  {b8a42ba0-caba-4314-91d6-6b8b0c756a2e}, !- Summer Design Day Schedule Name
  {db26ae86-b458-4f45-941d-4a5a79300ff3}; !- Winter Design Day Schedule Name

OS:Schedule:Day,
  {2c8b652c-9003-4824-9a41-497efccff0bd}, !- Handle
  Medium Office Lighting All Other Days Schedule, !- Name
  {e4370783-a9cf-4069-bc5f-af85db7f1d34}, !- Schedule Type Limits Name
  ,                                       !- Interpolate to Timestep
  24,                                     !- Hour 1
  0,                                      !- Minute 1
  0.05;                                   !- Value Until Time 1

OS:Schedule:Day,
  {9f5ba848-a4b0-4def-aff4-6f31288063d3}, !- Handle
  Medium Office Lighting Summer Design Day Schedule, !- Name
  ,                                       !- Schedule Type Limits Name
  ,                                       !- Interpolate to Timestep
  6,                                      !- Hour 1
  0,                                      !- Minute 1
  1,                                      !- Value Until Time 1
  24,                                     !- Hour 2
  0,                                      !- Minute 2
  0;                                      !- Value Until Time 2

OS:Schedule:Day,
  {b8a42ba0-caba-4314-91d6-6b8b0c756a2e}, !- Handle
  Medium Office Lighting Summer Design Day Schedule 1, !- Name
  {e4370783-a9cf-4069-bc5f-af85db7f1d34}, !- Schedule Type Limits Name
  ,                                       !- Interpolate to Timestep
  6,                                      !- Hour 1
  0,                                      !- Minute 1
  1,                                      !- Value Until Time 1
  24,                                     !- Hour 2
  0,                                      !- Minute 2
  0;                                      !- Value Until Time 2

OS:Schedule:Day,
  {ce4c7d95-51a2-4424-8526-5f5cb26086b7}, !- Handle
  Medium Office Lighting Winter Design Day Schedule, !- Name
  ,                                       !- Schedule Type Limits Name
  ,                                       !- Interpolate to Timestep
  24,                                     !- Hour 1
  0,                                      !- Minute 1
  0;                                      !- Value Until Time 1

OS:Schedule:Day,
  {db26ae86-b458-4f45-941d-4a5a79300ff3}, !- Handle
  Medium Office Lighting Winter Design Day Schedule 1, !- Name
  {e4370783-a9cf-4069-bc5f-af85db7f1d34}, !- Schedule Type Limits Name
  ,                                       !- Interpolate to Timestep
  24,                                     !- Hour 1
  0,                                      !- Minute 1
  0;                                      !- Value Until Time 1

OS:Schedule:Rule,
  {4465749f-c5b2-4d31-9eb5-3a37d4418d79}, !- Handle
  Medium Office Lighting Schedule Weekdays Rule, !- Name
  {d6916597-2509-45a7-965c-2138981236f0}, !- Schedule Ruleset Name
  1,                                      !- Rule Order
  {a3a805c5-59b8-402b-81d6-ecbea4671ee0}, !- Day Schedule Name
  ,                                       !- Apply Sunday
  Yes,                                    !- Apply Monday
  Yes,                                    !- Apply Tuesday
  Yes,                                    !- Apply Wednesday
  Yes,                                    !- Apply Thursday
  Yes;                                    !- Apply Friday

OS:Schedule:Day,
  {a3a805c5-59b8-402b-81d6-ecbea4671ee0}, !- Handle
  Medium Office Lighting Weekdays Schedule, !- Name
  {e4370783-a9cf-4069-bc5f-af85db7f1d34}, !- Schedule Type Limits Name
  ,                                       !- Interpolate to Timestep
  5,                                      !- Hour 1
  0,                                      !- Minute 1
  0.05,                                   !- Value Until Time 1
  7,                                      !- Hour 2
  0,                                      !- Minute 2
  0.1,                                    !- Value Until Time 2
  8,                                      !- Hour 3
  0,                                      !- Minute 3
  0.3,                                    !- Value Until Time 3
  17,                                     !- Hour 4
  0,                                      !- Minute 4
  0.9,                                    !- Value Until Time 4
  18,                                     !- Hour 5
  0,                                      !- Minute 5
  0.7,                                    !- Value Until Time 5
  20,                                     !- Hour 6
  0,                                      !- Minute 6
  0.5,                                    !- Value Until Time 6
  22,                                     !- Hour 7
  0,                                      !- Minute 7
  0.3,                                    !- Value Until Time 7
  23,                                     !- Hour 8
  0,                                      !- Minute 8
  0.1,                                    !- Value Until Time 8
  24,                                     !- Hour 9
  0,                                      !- Minute 9
  0.05;                                   !- Value Until Time 9

OS:Schedule:Rule,
  {0db9ef2c-c99b-4791-8c0c-2ea84c7832c3}, !- Handle
  Medium Office Lighting Schedule Saturday Rule, !- Name
  {d6916597-2509-45a7-965c-2138981236f0}, !- Schedule Ruleset Name
  0,                                      !- Rule Order
  {724d7bb5-f0c8-4c7e-9552-889477881bdc}, !- Day Schedule Name
  ,                                       !- Apply Sunday
  ,                                       !- Apply Monday
  ,                                       !- Apply Tuesday
  ,                                       !- Apply Wednesday
  ,                                       !- Apply Thursday
  ,                                       !- Apply Friday
  Yes;                                    !- Apply Saturday

OS:Schedule:Day,
  {724d7bb5-f0c8-4c7e-9552-889477881bdc}, !- Handle
  Medium Office Lighting Saturday Schedule, !- Name
  {e4370783-a9cf-4069-bc5f-af85db7f1d34}, !- Schedule Type Limits Name
  ,                                       !- Interpolate to Timestep
  6,                                      !- Hour 1
  0,                                      !- Minute 1
  0.05,                                   !- Value Until Time 1
  8,                                      !- Hour 2
  0,                                      !- Minute 2
  0.1,                                    !- Value Until Time 2
  14,                                     !- Hour 3
  0,                                      !- Minute 3
  0.5,                                    !- Value Until Time 3
  17,                                     !- Hour 4
  0,                                      !- Minute 4
  0.15,                                   !- Value Until Time 4
  24,                                     !- Hour 5
  0,                                      !- Minute 5
  0.05;                                   !- Value Until Time 5

OS:Schedule:Ruleset,
  {8eb5673b-8172-49cb-9cf6-b689147b30d2}, !- Handle
  Medium Office Electric Equipment Schedule, !- Name
  {e4370783-a9cf-4069-bc5f-af85db7f1d34}, !- Schedule Type Limits Name
  {466a8411-a13b-40a6-9928-566a0532e3ef}, !- Default Day Schedule Name
  {c71c6cbf-a212-4550-8320-be7cb68619e4}, !- Summer Design Day Schedule Name
  {8295384f-779c-4330-9229-f68e06bb794c}; !- Winter Design Day Schedule Name

OS:Schedule:Day,
  {466a8411-a13b-40a6-9928-566a0532e3ef}, !- Handle
  Medium Office Electric Equipment All Other Days Schedule, !- Name
  {e4370783-a9cf-4069-bc5f-af85db7f1d34}, !- Schedule Type Limits Name
  ,                                       !- Interpolate to Timestep
  24,                                     !- Hour 1
  0,                                      !- Minute 1
  0.3;                                    !- Value Until Time 1

OS:Schedule:Day,
  {8f59d147-0133-4ae8-8f06-a8450df74d30}, !- Handle
  Medium Office Electric Equipment Summer Design Day Schedule, !- Name
  ,                                       !- Schedule Type Limits Name
  ,                                       !- Interpolate to Timestep
  6,                                      !- Hour 1
  0,                                      !- Minute 1
  1,                                      !- Value Until Time 1
  24,                                     !- Hour 2
  0,                                      !- Minute 2
  0;                                      !- Value Until Time 2

OS:Schedule:Day,
  {c71c6cbf-a212-4550-8320-be7cb68619e4}, !- Handle
  Medium Office Electric Equipment Summer Design Day Schedule 1, !- Name
  {e4370783-a9cf-4069-bc5f-af85db7f1d34}, !- Schedule Type Limits Name
  ,                                       !- Interpolate to Timestep
  6,                                      !- Hour 1
  0,                                      !- Minute 1
  1,                                      !- Value Until Time 1
  24,                                     !- Hour 2
  0,                                      !- Minute 2
  0;                                      !- Value Until Time 2

OS:Schedule:Day,
  {f77c8921-9e37-48b0-b0c2-05830443949b}, !- Handle
  Medium Office Electric Equipment Winter Design Day Schedule, !- Name
  ,                                       !- Schedule Type Limits Name
  ,                                       !- Interpolate to Timestep
  24,                                     !- Hour 1
  0,                                      !- Minute 1
  0;                                      !- Value Until Time 1

OS:Schedule:Day,
  {8295384f-779c-4330-9229-f68e06bb794c}, !- Handle
  Medium Office Electric Equipment Winter Design Day Schedule 1, !- Name
  {e4370783-a9cf-4069-bc5f-af85db7f1d34}, !- Schedule Type Limits Name
  ,                                       !- Interpolate to Timestep
  24,                                     !- Hour 1
  0,                                      !- Minute 1
  0;                                      !- Value Until Time 1

OS:Schedule:Rule,
  {a64ed0c4-0b0c-454c-ad18-fd712ebf20ec}, !- Handle
  Medium Office Electric Equipment Schedule Weekdays Rule, !- Name
  {8eb5673b-8172-49cb-9cf6-b689147b30d2}, !- Schedule Ruleset Name
  1,                                      !- Rule Order
  {213b0faf-bdca-4705-a1c2-3b7d3439803c}, !- Day Schedule Name
  ,                                       !- Apply Sunday
  Yes,                                    !- Apply Monday
  Yes,                                    !- Apply Tuesday
  Yes,                                    !- Apply Wednesday
  Yes,                                    !- Apply Thursday
  Yes;                                    !- Apply Friday

OS:Schedule:Day,
  {213b0faf-bdca-4705-a1c2-3b7d3439803c}, !- Handle
  Medium Office Electric Equipment Weekdays Schedule, !- Name
  {e4370783-a9cf-4069-bc5f-af85db7f1d34}, !- Schedule Type Limits Name
  ,                                       !- Interpolate to Timestep
  8,                                      !- Hour 1
  0,                                      !- Minute 1
  0.4,                                    !- Value Until Time 1
  12,                                     !- Hour 2
  0,                                      !- Minute 2
  0.9,                                    !- Value Until Time 2
  13,                                     !- Hour 3
  0,                                      !- Minute 3
  0.8,                                    !- Value Until Time 3
  17,                                     !- Hour 4
  0,                                      !- Minute 4
  0.9,                                    !- Value Until Time 4
  18,                                     !- Hour 5
  0,                                      !- Minute 5
  0.8,                                    !- Value Until Time 5
  20,                                     !- Hour 6
  0,                                      !- Minute 6
  0.6,                                    !- Value Until Time 6
  22,                                     !- Hour 7
  0,                                      !- Minute 7
  0.5,                                    !- Value Until Time 7
  24,                                     !- Hour 8
  0,                                      !- Minute 8
  0.4;                                    !- Value Until Time 8

OS:Schedule:Rule,
  {d5a0a858-48cb-4cf9-a3d6-f980073bc83f}, !- Handle
  Medium Office Electric Equipment Schedule Saturday Rule, !- Name
  {8eb5673b-8172-49cb-9cf6-b689147b30d2}, !- Schedule Ruleset Name
  0,                                      !- Rule Order
  {3dc99517-25ab-4a63-bec2-9702490d5601}, !- Day Schedule Name
  ,                                       !- Apply Sunday
  ,                                       !- Apply Monday
  ,                                       !- Apply Tuesday
  ,                                       !- Apply Wednesday
  ,                                       !- Apply Thursday