
OS:Version,
  {adde298b-fd4a-4f49-8a01-a71def916217}, !- Handle
  1.0.6;                                  !- Version Identifier

OS:Schedule:Ruleset,
  {3a7ac53d-3f55-4ba4-92ed-ed72b64f4af1}, !- Handle
  Always_On,                              !- Name
  {7b803e69-d601-4eeb-ac32-27a7dbc0ccda}, !- Schedule Type Limits Name
  {18705a86-3dec-4c11-8864-095fb8b75e5c}, !- Default Day Schedule Name
  {812f316b-943e-437d-bbee-82002545f218}, !- Summer Design Day Schedule Name
  {ab87dd30-7abd-4b0f-a990-87353954d2d8}; !- Winter Design Day Schedule Name

OS:Schedule:Day,
  {18705a86-3dec-4c11-8864-095fb8b75e5c}, !- Handle
  Always_On_Default,                      !- Name
  {7b803e69-d601-4eeb-ac32-27a7dbc0ccda}, !- Schedule Type Limits Name
  ,                                       !- Interpolate to Timestep
  24,                                     !- Hour 1
  0,                                      !- Minute 1
  1;                                      !- Value Until Time 1

OS:Schedule:Day,
  {628f5f9c-e32b-4206-9a62-8cf98dd5c7cb}, !- Handle
  Schedule Day 2,                         !- Name
  ,                                       !- Schedule Type Limits Name
  ,                                       !- Interpolate to Timestep
  24,                                     !- Hour 1
  0,                                      !- Minute 1
  0;                                      !- Value Until Time 1

OS:Schedule:Day,
  {ab87dd30-7abd-4b0f-a990-87353954d2d8}, !- Handle
  Always_On_Winter_Design_Day,            !- Name
  {7b803e69-d601-4eeb-ac32-27a7dbc0ccda}, !- Schedule Type Limits Name
  ,                                       !- Interpolate to Timestep
  24,                                     !- Hour 1
  0,                                      !- Minute 1
  1;                                      !- Value Until Time 1

OS:Schedule:Day,
  {71028c78-56fe-4e09-938f-4a0093458241}, !- Handle
  Schedule Day 3,                         !- Name
  ,                                       !- Schedule Type Limits Name
  ,                                       !- Interpolate to Timestep
  24,                                     !- Hour 1
  0,                                      !- Minute 1
  0;                                      !- Value Until Time 1

OS:Schedule:Day,
  {812f316b-943e-437d-bbee-82002545f218}, !- Handle
  Always_On_Summer_Design_Day,            !- Name
  {7b803e69-d601-4eeb-ac32-27a7dbc0ccda}, !- Schedule Type Limits Name
  ,                                       !- Interpolate to Timestep
  24,                                     !- Hour 1
  0,                                      !- Minute 1
  1;                                      !- Value Until Time 1

OS:Schedule:Ruleset,
  {601a0bb3-bce5-4f73-a46f-272cc7e21ee7}, !- Handle
  Always_Off,                             !- Name
  ,                                       !- Schedule Type Limits Name
  {9e0491aa-fb98-405d-8f34-82ace976a8d8}, !- Default Day Schedule Name
  {d90b8e3c-388b-45fb-bda4-1e7ad094a8c2}, !- Summer Design Day Schedule Name
  {d2dda48b-d8a5-45ed-a623-c1826ca7642a}; !- Winter Design Day Schedule Name

OS:Schedule:Day,
  {9e0491aa-fb98-405d-8f34-82ace976a8d8}, !- Handle
  Always_Off_Default,                     !- Name
  ,                                       !- Schedule Type Limits Name
  ,                                       !- Interpolate to Timestep
  24,                                     !- Hour 1
  0,                                      !- Minute 1
  0;                                      !- Value Until Time 1

OS:Schedule:Day,
  {85a21ba4-5fef-4efd-a860-c174af972739}, !- Handle
  Schedule Day 4,                         !- Name
  ,                                       !- Schedule Type Limits Name
  ,                                       !- Interpolate to Timestep
  24,                                     !- Hour 1
  0,                                      !- Minute 1
  0;                                      !- Value Until Time 1

OS:Schedule:Day,
  {d2dda48b-d8a5-45ed-a623-c1826ca7642a}, !- Handle
  Always_Off_Winter_Design_Day,           !- Name
  ,                                       !- Schedule Type Limits Name
  ,                                       !- Interpolate to Timestep
  24,                                     !- Hour 1
  0,                                      !- Minute 1
  0;                                      !- Value Until Time 1

OS:Schedule:Day,
  {aebedcc5-0797-4f65-93d2-8a2657ddceec}, !- Handle
  Schedule Day 5,                         !- Name
  ,                                       !- Schedule Type Limits Name
  ,                                       !- Interpolate to Timestep
  24,                                     !- Hour 1
  0,                                      !- Minute 1
  0;                                      !- Value Until Time 1

OS:Schedule:Day,
  {d90b8e3c-388b-45fb-bda4-1e7ad094a8c2}, !- Handle
  Always_Off_Summer_Design_Day,           !- Name
  ,                                       !- Schedule Type Limits Name
  ,                                       !- Interpolate to Timestep
  24,                                     !- Hour 1
  0,                                      !- Minute 1
  0;                                      !- Value Until Time 1

OS:Schedule:Ruleset,
  {1363cc6a-4011-437d-b2ba-a2fd086355a4}, !- Handle
  Deck_Temperature,                       !- Name
  {157d778a-aebd-42ef-83db-5c9f6b59dd04}, !- Schedule Type Limits Name
  {b2721459-bd3a-4acc-98bf-28a1a7a8a6bb}, !- Default Day Schedule Name
  {a08b3f14-71f6-4018-bfa1-68004ab9acd7}, !- Summer Design Day Schedule Name
  {9c68a45c-2ce9-4196-a135-a97c80ab996f}; !- Winter Design Day Schedule Name

OS:Schedule:Day,
  {b2721459-bd3a-4acc-98bf-28a1a7a8a6bb}, !- Handle
  Deck_Temperature_Default,               !- Name
  {157d778a-aebd-42ef-83db-5c9f6b59dd04}, !- Schedule Type Limits Name
  ,                                       !- Interpolate to Timestep
  24,                                     !- Hour 1
  0,                                      !- Minute 1
  12.8;                                   !- Value Until Time 1

OS:Schedule:Day,
  {32ca8752-9b6e-439c-8928-0460a275a27d}, !- Handle
  Schedule Day 6,                         !- Name
  ,                                       !- Schedule Type Limits Name
  ,                                       !- Interpolate to Timestep
  24,                                     !- Hour 1
  0,                                      !- Minute 1
  0;                                      !- Value Until Time 1

OS:Schedule:Day,
  {9c68a45c-2ce9-4196-a135-a97c80ab996f}, !- Handle
  Deck_Temperature_Winter_Design_Day,     !- Name
  {157d778a-aebd-42ef-83db-5c9f6b59dd04}, !- Schedule Type Limits Name
  ,                                       !- Interpolate to Timestep
  24,                                     !- Hour 1
  0,                                      !- Minute 1
  12.8;                                   !- Value Until Time 1

OS:Schedule:Day,
  {6e878b3f-610a-49b7-88f1-9952f002b2cb}, !- Handle
  Schedule Day 7,                         !- Name
  ,                                       !- Schedule Type Limits Name
  ,                                       !- Interpolate to Timestep
  24,                                     !- Hour 1
  0,                                      !- Minute 1
  0;                                      !- Value Until Time 1

OS:Schedule:Day,
  {a08b3f14-71f6-4018-bfa1-68004ab9acd7}, !- Handle
  Deck_Temperature_Summer_Design_Day,     !- Name
  {157d778a-aebd-42ef-83db-5c9f6b59dd04}, !- Schedule Type Limits Name
  ,                                       !- Interpolate to Timestep
  24,                                     !- Hour 1
  0,                                      !- Minute 1
  12.8;                                   !- Value Until Time 1

OS:Construction,
  {edbe2c2b-eed4-4f65-a40e-d9c6b49b7875}, !- Handle
  INT-FLOOR-TOPSIDE,                      !- Name
  ,                                       !- Surface Rendering Name
  {c57bec14-8d50-4528-98b8-6610e2e04107}, !- Layer 1
  {5adfea2c-795c-42e6-b3e6-9b34f59708b2}, !- Layer 2
  {f1f61266-a706-4345-9f3b-de81081a51c0}; !- Layer 3

OS:Material,
  {c57bec14-8d50-4528-98b8-6610e2e04107}, !- Handle
  1/2IN Gypsum,                           !- Name
  Smooth,                                 !- Roughness
  0.0127,                                 !- Thickness {m}
  0.1600,                                 !- Conductivity {W/m-K}
  784.9000,                               !- Density {kg/m3}
  830.0000,                               !- Specific Heat {J/kg-K}
  0.9000,                                 !- Thermal Absorptance
  0.9200,                                 !- Solar Absorptance
  0.9200;                                 !- Visible Absorptance

OS:Material,
  {5adfea2c-795c-42e6-b3e6-9b34f59708b2}, !- Handle
  4IN CONCRETE HW,                        !- Name
  Rough,                                  !- Roughness
  0.1016,                                 !- Thickness {m}
  1.3110,                                 !- Conductivity {W/m-K}
  2240.0000,                              !- Density {kg/m3}
  836.8000,                               !- Specific Heat {J/kg-K}
  0.9000,                                 !- Thermal Absorptance
  0.7000,                                 !- Solar Absorptance
  0.7000;                                 !- Visible Absorptance

OS:Material:NoMass,
  {f1f61266-a706-4345-9f3b-de81081a51c0}, !- Handle
  CP02 CARPET PAD,                        !- Name
  VeryRough,                              !- Roughness
  0.2165,                                 !- Thermal Resistance {m2-K/W}
  0.9000,                                 !- Thermal Absorptance
  0.7000,                                 !- Solar Absorptance
  0.8000;                                 !- Visible Absorptance

OS:StandardsInformation:Construction,
  {d65ef82a-4c11-416c-bc56-5c396ce5cb2c}, !- Handle
  {edbe2c2b-eed4-4f65-a40e-d9c6b49b7875}, ! Construction Name
  ,                                       ! Intended Surface Type
  Mass,                                   ! Construction Type
  0,                                      ! Perturbable Layer
  Insulation,                             ! Perturbable Layer Type
  ;                                       ! Other Perturbable Layer Type

OS:Construction,
  {35f0e7b9-7951-41ab-a79c-a231fbe93d2b}, !- Handle
  INT-FLOOR-UNDERSIDE,                    !- Name
  ,                                       !- Surface Rendering Name
  {f1f61266-a706-4345-9f3b-de81081a51c0}, !- Layer 1
  {5adfea2c-795c-42e6-b3e6-9b34f59708b2}, !- Layer 2
  {c57bec14-8d50-4528-98b8-6610e2e04107}; !- Layer 3

OS:StandardsInformation:Construction,
  {9edbc4e0-7af8-4a50-9023-dd50c0f8a9db}, !- Handle
  {35f0e7b9-7951-41ab-a79c-a231fbe93d2b}, ! Construction Name
  ,                                       ! Intended Surface Type
  Mass,                                   ! Construction Type
  1,                                      ! Perturbable Layer
  Insulation,                             ! Perturbable Layer Type
  ;                                       ! Other Perturbable Layer Type

OS:Construction,
  {13e79565-35d8-404c-a25a-b7a87ef6a5cd}, !- Handle
  Standard_Int-Wall,                      !- Name
  ,                                       !- Surface Rendering Name
  {c57bec14-8d50-4528-98b8-6610e2e04107}, !- Layer 1
  {c57bec14-8d50-4528-98b8-6610e2e04107}; !- Layer 2

OS:StandardsInformation:Construction,
  {61c0ade9-0eeb-4880-8b16-7f6fbe28e42a}, !- Handle
  {13e79565-35d8-404c-a25a-b7a87ef6a5cd}, ! Construction Name
  ,                                       ! Intended Surface Type
  Mass,                                   ! Construction Type
  0,                                      ! Perturbable Layer
  Insulation,                             ! Perturbable Layer Type
  ;                                       ! Other Perturbable Layer Type

OS:DefaultSurfaceConstructions,
  {01e9f50c-99a6-481e-8b6a-c505619fab37}, !- Handle
  Default Surface Constructions 1,        !- Name
  {edbe2c2b-eed4-4f65-a40e-d9c6b49b7875}, !- Floor Construction Name
  {13e79565-35d8-404c-a25a-b7a87ef6a5cd}, !- Wall Construction Name
  {35f0e7b9-7951-41ab-a79c-a231fbe93d2b}; !- Roof Ceiling Construction Name

OS:DefaultConstructionSet,
  {4920735d-197c-410f-968d-388211aa35ad}, !- Handle
  Default Construction Set 1,             !- Name
  ,                                       !- Default Exterior Surface Constructions Name
  {01e9f50c-99a6-481e-8b6a-c505619fab37}, !- Default Interior Surface Constructions Name
  ,                                       !- Default Ground Contact Surface Constructions Name
  ,                                       !- Default Exterior SubSurface Constructions Name
  ,                                       !- Default Interior SubSurface Constructions Name
  ,                                       !- Interior Partition Construction Name
  ,                                       !- Space Shading Construction Name
  ,                                       !- Building Shading Construction Name
  ;                                       !- Site Shading Construction Name

OS:Building,
  {b7021b4f-97d7-43bd-b357-6d011bf5e8f2}, !- Handle
  Building 1,                             !- Name
  ,                                       !- Building Type
  ,                                       !- North Axis {deg}
  ,                                       !- Nominal Floor to Floor Height {m}
  ,                                       !- Space Type Name
  {4920735d-197c-410f-968d-388211aa35ad}, !- Default Construction Set Name
  ;                                       !- Default Schedule Set Name

! Exterior Walls
OS:Construction,
  {9c08c0f0-72b8-41f5-911a-2e7e6497d70c}, !- Handle
  Masonry_Wood_Frame_Wall,                !- Name
  ,                                       !- Surface Rendering Name
  {b7e06475-bed8-4710-a5ec-aca732043ecc}, !- Layer 1
  {f14b1abb-4f26-4538-9c9f-215228829d9e}, !- Layer 2
  {c57bec14-8d50-4528-98b8-6610e2e04107}; !- Layer 3

OS:Material,
  {b7e06475-bed8-4710-a5ec-aca732043ecc}, !- Handle
  M01 100mm brick,                        !- Name
  MediumRough,                            !- Roughness
  0.1016,                                 !- Thickness {m}
  0.89,                                   !- Conductivity {W/m-K}
  1920,                                   !- Density {kg/m3}
  790,                                    !- Specific Heat {J/kg-K}
  0.9000,                                 !- Thermal Absorptance
  0.700,                                  !- Solar Absorptance
  0.700;                                  !- Visible Absorptance

OS:Material,
  {f14b1abb-4f26-4538-9c9f-215228829d9e}, !- Handle
  Wood Frame Wall Insulation,             !- Name
  MediumRough,                            !- Roughness
  0.0752026065643862,                     !- Thickness {m}
  0.049,                                  !- Conductivity {W/m-K}
  265.0000,                               !- Density {kg/m3}
  836.8000,                               !- Specific Heat {J/kg-K}
  0.9000,                                 !- Thermal Absorptance
  0.7000,                                 !- Solar Absorptance
  0.7000;                                 !- Visible Absorptance

OS:StandardsInformation:Construction,
  {4647c606-f6fd-4cf4-a68b-703d52162dee}, !- Handle
  {9c08c0f0-72b8-41f5-911a-2e7e6497d70c}, ! Construction Name
  ,                                       ! Intended Surface Type
  Wood-Framed,                            ! Construction Type
  1,                                      ! Perturbable Layer
  Insulation,                             ! Perturbable Layer Type
  ;                                       ! Other Perturbable Layer Type

! Roof from DOE reference building new warehouse
OS:Construction,
  {3ecd4b86-1c70-46e4-88e1-2f544b156df3}, !- Handle
  Metal_Building_Roof,                    !- Name
  ,                                       !- Surface Rendering Name
  {9a561e1c-c81f-44c5-a4d8-1cedbe675621}, !- Layer 1
  {521c562f-0299-420c-a777-049a2107487c}; !- Layer 2

OS:Material,
  {9a561e1c-c81f-44c5-a4d8-1cedbe675621}, !- Handle
  Metal Roofing,                          !- Name
  MediumSmooth,                           !- Roughness
  0.0015,                                 !- Thickness {m}
  45.0060,                                !- Conductivity {W/m-K}
  7680.0000,                              !- Density {kg/m3}
  418.4000,                               !- Specific Heat {J/kg-K}
  0.9000,                                 !- Thermal Absorptance
  0.7000,                                 !- Solar Absorptance
  0.3000;                                 !- Visible Absorptance

OS:Material,
  {521c562f-0299-420c-a777-049a2107487c}, !- Handle
  Metal Building Roof Insulation,         !- Name
  MediumRough,                            !- Roughness
  0.12710269892257,                       !- Thickness {m}
  0.049,                                  !- Conductivity {W/m-K}
  265.0000,                               !- Density {kg/m3}
  836.8000,                               !- Specific Heat {J/kg-K}
  0.9000,                                 !- Thermal Absorptance
  0.7000,                                 !- Solar Absorptance
  0.7000;                                 !- Visible Absorptance

OS:StandardsInformation:Construction,
  {9dfa66e6-873e-4bad-83a8-d1ee8842dd84}, !- Handle
  {3ecd4b86-1c70-46e4-88e1-2f544b156df3}, ! Construction Name
  ,                                       ! Intended Surface Type
  Metal-Building,                         ! Construction Type
  1,                                      ! Perturbable Layer
  Insulation,                             ! Perturbable Layer Type
  ;                                       ! Other Perturbable Layer Type

OS:Construction,
  {2661b32b-2918-4046-b3b8-77862b5a6995}, !- Handle
  Insul_slab,                             !- Name
  ,                                       !- Surface Rendering Name
  {e3dbb720-34b1-42d1-aa8f-cebbdfdc1846}, !- Layer 1
  {dc970c71-0d0f-412f-9b4d-f95c10621170}; !- Layer 2

OS:Material,
  {e3dbb720-34b1-42d1-aa8f-cebbdfdc1846}, !- Handle
  Floor Insulation,                       !- Name
  MediumRough,                            !- Roughness
  0.0795,                                 !- Thickness {m}
  0.0450,                                 !- Conductivity {W/m-K}
  265.0000,                               !- Density {kg/m3}
  836.8000,                               !- Specific Heat {J/kg-K}
  0.9000,                                 !- Thermal Absorptance
  0.7000,                                 !- Solar Absorptance
  0.7000;                                 !- Visible Absorptance

OS:Material,
  {dc970c71-0d0f-412f-9b4d-f95c10621170}, !- Handle
  MAT-CC05 8 HW CONCRETE,                 !- Name
  Rough,                                  !- Roughness
  0.2032,                                 !- Thickness {m}
  1.3110,                                 !- Conductivity {W/m-K}
  2240.0000,                              !- Density {kg/m3}
  836.8000,                               !- Specific Heat {J/kg-K}
  0.9000,                                 !- Thermal Absorptance
  0.7000,                                 !- Solar Absorptance
  0.7000;                                 !- Visible Absorptance

OS:StandardsInformation:Construction,
  {4599e60e-1d4e-4e95-bcdb-c3b5637a5621}, !- Handle
  {2661b32b-2918-4046-b3b8-77862b5a6995}, ! Construction Name
  ,                                       ! Intended Surface Type
  Exterior Floor:Slab,                    ! Construction Type
  0,                                      ! Perturbable Layer
  Insulation,                             ! Perturbable Layer Type
  ;                                       ! Other Perturbable Layer Type

OS:Construction,
  {a99a83cd-2f2f-4ddb-ba3f-6b0f0075a613}, !- Handle
  Insul_slab 1,                           !- Name
  ,                                       !- Surface Rendering Name
  {e3dbb720-34b1-42d1-aa8f-cebbdfdc1846}, !- Layer 1
  {dc970c71-0d0f-412f-9b4d-f95c10621170}; !- Layer 2

OS:StandardsInformation:Construction,
  {e481cb05-b4bc-40e7-a00c-e41c50bc1094}, !- Handle
  {a99a83cd-2f2f-4ddb-ba3f-6b0f0075a613}, ! Construction Name
  ,                                       ! Intended Surface Type
  Exterior Floor:Slab,                    ! Construction Type
  0,                                      ! Perturbable Layer
  Insulation,                             ! Perturbable Layer Type
  ;                                       ! Other Perturbable Layer Type

OS:WindowMaterial:SimpleGlazingSystem,
  {71f12de3-7204-4ba6-a40e-ccb2b71cb1e9}, !- Handle
  Glazing Layer,                          !- Name
  0.1,                                    !- U-Factor {W/m2-K}
  0.8265,                                 !- Solar Heat Gain Coefficient
  0.7;                                    !- Visible Transmittance

OS:Construction,
  {1fce35e9-6655-41d4-9a4e-1e92c4149600}, !- Handle
  fenestration___,                        !- Name
  ,                                       !- Surface Rendering Name
  {71f12de3-7204-4ba6-a40e-ccb2b71cb1e9}; !- Layer 1

OS:AirLoopHVAC,
  {5fea83d3-ea55-4dd4-941e-ce8762f8cbdd}, !- Handle
  AirLoop 82,                             !- Name
  ,                                       !- Controller List Name
  {2a06cd15-c98c-49e6-acc9-1b37ef7fd1ff}, !- Availability Manager List Name
  AutoSize,                               !- Design Supply Air Flow Rate {m3/s}
  ,                                       !- Branch List Name
  ,                                       !- Connector List Name
  {9700d553-e0bd-46ce-beef-ebdf1488f690}, !- Supply Side Inlet Node Name
  {a3b03481-7d80-4e3e-a79f-a236a2498987}, !- Demand Side Outlet Node Name
  {8acdf33e-3e05-47a2-9603-b4ef4e0990a9}, !- Demand Side Inlet Node Names
  {d79deae0-ef22-453f-ba23-709ffe0da84c}; !- Supply Side Outlet Node Names

OS:AvailabilityManagerAssignmentList,
  {2a06cd15-c98c-49e6-acc9-1b37ef7fd1ff}, !- Handle
  Availability Manager Assignment List 1, !- Name
  {144bbffc-7d1b-4f14-939c-f62f0aea20a7}, !- Availability Manager Name 1
  {7a2ce22e-f728-4675-a514-d628f27247c9}; !- Availability Manager Name 2

OS:AvailabilityManager:Scheduled,
  {144bbffc-7d1b-4f14-939c-f62f0aea20a7}, !- Handle
  Availability Manager Scheduled 1,       !- Name
  {3c3c2f9e-d6b1-4cf3-9a62-719505e2497f}; !- Schedule Name

OS:Schedule:Constant,
  {3c3c2f9e-d6b1-4cf3-9a62-719505e2497f}, !- Handle
  Always On Discrete,                     !- Name
  {877704a5-8f35-44e6-9b25-1e81e09d81df}, !- Schedule Type Limits Name
  1;                                      !- Value

OS:ScheduleTypeLimits,
  {877704a5-8f35-44e6-9b25-1e81e09d81df}, !- Handle
  Schedule Type Limits 1,                 !- Name
  0,                                      !- Lower Limit Value {BasedOnField A4}
  1,                                      !- Upper Limit Value {BasedOnField A4}
  Discrete,                               !- Numeric Type
  Availability;                           !- Unit Type

OS:AvailabilityManager:NightCycle,
  {7a2ce22e-f728-4675-a514-d628f27247c9}, !- Handle
  Availability Manager Night Cycle 1,     !- Name
  ,                                       !- Applicability Schedule
  ,                                       !- Fan Schedule
  ,                                       !- Control Type
  ,                                       !- Thermostat Tolerance {deltaC}
  ;                                       !- Cycling Run Time {s}

OS:Node,
  {4d1fcce1-e977-4e9e-8eb4-ca760313f27b}, !- Handle
  Node 1,                                 !- Name
  {9700d553-e0bd-46ce-beef-ebdf1488f690}, !- Inlet Port
  {e2d51242-b221-4d80-8372-c7af6a645cb9}; !- Outlet Port

OS:Node,
  {23b13a57-3a3d-44b5-b3bb-d0fa7b17ea14}, !- Handle
  Node 2,                                 !- Name
  {29d0c73b-e8b3-4161-99ce-2152abe4df1f}, !- Inlet Port
  {d79deae0-ef22-453f-ba23-709ffe0da84c}; !- Outlet Port

OS:Connection,
  {9700d553-e0bd-46ce-beef-ebdf1488f690}, !- Handle
  Connection 1,                           !- Name
  {5fea83d3-ea55-4dd4-941e-ce8762f8cbdd}, !- Source Object
  7,                                      !- Outlet Port
  {4d1fcce1-e977-4e9e-8eb4-ca760313f27b}, !- Target Object
  2;                                      !- Inlet Port

OS:Connection,
  {d79deae0-ef22-453f-ba23-709ffe0da84c}, !- Handle
  Connection 3,                           !- Name
  {23b13a57-3a3d-44b5-b3bb-d0fa7b17ea14}, !- Source Object
  3,                                      !- Outlet Port
  {5fea83d3-ea55-4dd4-941e-ce8762f8cbdd}, !- Target Object
  10;                                     !- Inlet Port

OS:Node,
  {3e0648f0-517f-40fa-b471-a1e39a7dd965}, !- Handle
  Node 3,                                 !- Name
  {8acdf33e-3e05-47a2-9603-b4ef4e0990a9}, !- Inlet Port
  {6ea5f816-0f83-4896-bf7d-6e2b9832037d}; !- Outlet Port

OS:Node,
  {4cd4c4ac-8d9b-417c-977f-5d4d78251b34}, !- Handle
  Node 4,                                 !- Name
  {733f2585-c332-485a-bae2-cae9cd292785}, !- Inlet Port
  {a3b03481-7d80-4e3e-a79f-a236a2498987}; !- Outlet Port

OS:Node,
  {89de2e35-115f-433d-8b97-a0d3fcdc28e0}, !- Handle
  Node 5,                                 !- Name
  {4839b44e-83c5-49e6-a14e-89b079c0e789}, !- Inlet Port
  {1a0855f0-1db6-4bd5-834e-5c81c36276b2}; !- Outlet Port

OS:Connection,
  {8acdf33e-3e05-47a2-9603-b4ef4e0990a9}, !- Handle
  Connection 4,                           !- Name
  {5fea83d3-ea55-4dd4-941e-ce8762f8cbdd}, !- Source Object
  9,                                      !- Outlet Port
  {3e0648f0-517f-40fa-b471-a1e39a7dd965}, !- Target Object
  2;                                      !- Inlet Port

OS:Connection,
  {a3b03481-7d80-4e3e-a79f-a236a2498987}, !- Handle
  Connection 5,                           !- Name
  {4cd4c4ac-8d9b-417c-977f-5d4d78251b34}, !- Source Object
  3,                                      !- Outlet Port
  {5fea83d3-ea55-4dd4-941e-ce8762f8cbdd}, !- Target Object
  8;                                      !- Inlet Port

OS:AirLoopHVAC:ZoneSplitter,
  {4d4cd45a-b64c-460c-909d-97893e47c976}, !- Handle
  Air Loop HVAC Zone Splitter 1,          !- Name
  {6ea5f816-0f83-4896-bf7d-6e2b9832037d}, !- Inlet Node Name
  {2bdbeeb0-d9d7-4256-85c4-072578bc9272}; !- Outlet Node Name 1

OS:AirLoopHVAC:ZoneMixer,
  {54e138bd-2a32-4bd3-969d-16691cba6a88}, !- Handle
  Air Loop HVAC Zone Mixer 1,             !- Name
  {733f2585-c332-485a-bae2-cae9cd292785}, !- Outlet Node Name
  {1a0855f0-1db6-4bd5-834e-5c81c36276b2}; !- Inlet Node Name 1

OS:Connection,
  {6ea5f816-0f83-4896-bf7d-6e2b9832037d}, !- Handle
  Connection 6,                           !- Name
  {3e0648f0-517f-40fa-b471-a1e39a7dd965}, !- Source Object
  3,                                      !- Outlet Port
  {4d4cd45a-b64c-460c-909d-97893e47c976}, !- Target Object
  2;                                      !- Inlet Port

OS:Connection,
  {1a0855f0-1db6-4bd5-834e-5c81c36276b2}, !- Handle
  Connection 8,                           !- Name
  {89de2e35-115f-433d-8b97-a0d3fcdc28e0}, !- Source Object
  3,                                      !- Outlet Port
  {54e138bd-2a32-4bd3-969d-16691cba6a88}, !- Target Object
  3;                                      !- Inlet Port

OS:Connection,
  {733f2585-c332-485a-bae2-cae9cd292785}, !- Handle
  Connection 9,                           !- Name
  {54e138bd-2a32-4bd3-969d-16691cba6a88}, !- Source Object
  2,                                      !- Outlet Port
  {4cd4c4ac-8d9b-417c-977f-5d4d78251b34}, !- Target Object
  2;                                      !- Inlet Port

OS:Sizing:System,
  {b36f56a9-29b1-448e-986c-90e7da66cfa7}, !- Handle
  {5fea83d3-ea55-4dd4-941e-ce8762f8cbdd}, !- AirLoop Name
  Sensible,                               !- Type of Load to Size On
  Autosize,                               !- Design Outdoor Air Flow Rate {m3/s}
  0.3,                                    !- Minimum System Air Flow Ratio
  7,                                      !- Preheat Design Temperature {C}
  0.008,                                  !- Preheat Design Humidity Ratio {kg-H2O/kg-Air}
  12.8,                                   !- Precool Design Temperature {C}
  0.008,                                  !- Precool Design Humidity Ratio {kg-H2O/kg-Air}
  12.8,                                   !- Central Cooling Design Supply Air Temperature {C}
  16.7,                                   !- Central Heating Design Supply Air Temperature {C}
  NonCoincident,                          !- Sizing Option
  Yes,                                    !- 100% Outdoor Air in Cooling
  Yes,                                    !- 100% Outdoor Air in Heating
  0.0085,                                 !- Central Cooling Design Supply Air Humidity Ratio {kg-H2O/kg-Air}
  0.008,                                  !- Central Heating Design Supply Air Humidity Ratio {kg-H2O/kg-Air}
  DesignDay,                              !- Cooling Design Air Flow Method
  0,                                      !- Cooling Design Air Flow Rate {m3/s}
  DesignDay,                              !- Heating Design Air Flow Method
  0,                                      !- Heating Design Air Flow Rate {m3/s}
  ZoneSum;                                !- System Outdoor Air Method

OS:Controller:OutdoorAir,
  {b365faaa-2e57-47c7-937e-af663e58ca42}, !- Handle
  Controller Outdoor Air 1,               !- Name
  ,                                       !- Relief Air Outlet Node Name
  ,                                       !- Return Air Node Name
  ,                                       !- Mixed Air Node Name
  ,                                       !- Actuator Node Name
  Autosize,                               !- Minimum Outdoor Air Flow Rate {m3/s}
  Autosize,                               !- Maximum Outdoor Air Flow Rate {m3/s}