
OS:Version,
  {471deebd-8b31-4b39-bc76-4df32fb55736}, !- Handle
  1.0.6;                                  !- Version Identifier

OS:Schedule:Ruleset,
  {a973b319-38dc-4b2b-bf9e-138217fc6e14}, !- Handle
  Always_On,                              !- Name
  {b3a1cf69-9adf-4d4d-a866-d06572853175}, !- Schedule Type Limits Name
  {35d2df83-3459-4d45-b8d7-5760b3a9e95a}, !- Default Day Schedule Name
  {42dbf9e4-a821-4a45-9f58-66f1f28669e3}, !- Summer Design Day Schedule Name
  {c076aab3-d3a9-45ec-905c-3207752694ef}; !- Winter Design Day Schedule Name

OS:Schedule:Day,
  {35d2df83-3459-4d45-b8d7-5760b3a9e95a}, !- Handle
  Always_On_Default,                      !- Name
  {b3a1cf69-9adf-4d4d-a866-d06572853175}, !- Schedule Type Limits Name
  ,                                       !- Interpolate to Timestep
  24,                                     !- Hour 1
  0,                                      !- Minute 1
  1;                                      !- Value Until Time 1

OS:Schedule:Day,
  {bce4e283-48ca-4fd2-95fc-369aad41e389}, !- Handle
  Schedule Day 2,                         !- Name
  ,                                       !- Schedule Type Limits Name
  ,                                       !- Interpolate to Timestep
  24,                                     !- Hour 1
  0,                                      !- Minute 1
  0;                                      !- Value Until Time 1

OS:Schedule:Day,
  {c076aab3-d3a9-45ec-905c-3207752694ef}, !- Handle
  Always_On_Winter_Design_Day,            !- Name
  {b3a1cf69-9adf-4d4d-a866-d06572853175}, !- Schedule Type Limits Name
  ,                                       !- Interpolate to Timestep
  24,                                     !- Hour 1
  0,                                      !- Minute 1
  1;                                      !- Value Until Time 1

OS:Schedule:Day,
  {0d7e59b8-4cfa-4d4f-8c47-7e6d53ba7f96}, !- Handle
  Schedule Day 3,                         !- Name
  ,                                       !- Schedule Type Limits Name
  ,                                       !- Interpolate to Timestep
  24,                                     !- Hour 1
  0,                                      !- Minute 1
  0;                                      !- Value Until Time 1

OS:Schedule:Day,
  {42dbf9e4-a821-4a45-9f58-66f1f28669e3}, !- Handle
  Always_On_Summer_Design_Day,            !- Name
  {b3a1cf69-9adf-4d4d-a866-d06572853175}, !- Schedule Type Limits Name
  ,                                       !- Interpolate to Timestep
  24,                                     !- Hour 1
  0,                                      !- Minute 1
  1;                                      !- Value Until Time 1

OS:Schedule:Ruleset,
  {d47335b2-2e9c-40b8-ad06-79a38803400e}, !- Handle
  Always_Off,                             !- Name
  ,                                       !- Schedule Type Limits Name
  {08575a17-5a67-48e8-90a3-83730f839902}, !- Default Day Schedule Name
  {20625590-b0e6-45c1-8c6c-7e73b90832ff}, !- Summer Design Day Schedule Name
  {9c9b128e-3f68-466c-80b6-295f679b3713}; !- Winter Design Day Schedule Name

OS:Schedule:Day,
  {08575a17-5a67-48e8-90a3-83730f839902}, !- Handle
  Always_Off_Default,                     !- Name
  ,                                       !- Schedule Type Limits Name
  ,                                       !- Interpolate to Timestep
  24,                                     !- Hour 1
  0,                                      !- Minute 1
  0;                                      !- Value Until Time 1

OS:Schedule:Day,
  {1817b6c9-986e-44ef-a19a-99e319341b90}, !- Handle
  Schedule Day 4,                         !- Name
  ,                                       !- Schedule Type Limits Name
  ,                                       !- Interpolate to Timestep
  24,                                     !- Hour 1
  0,                                      !- Minute 1
  0;                                      !- Value Until Time 1

OS:Schedule:Day,
  {9c9b128e-3f68-466c-80b6-295f679b3713}, !- Handle
  Always_Off_Winter_Design_Day,           !- Name
  ,                                       !- Schedule Type Limits Name
  ,                                       !- Interpolate to Timestep
  24,                                     !- Hour 1
  0,                                      !- Minute 1
  0;                                      !- Value Until Time 1

OS:Schedule:Day,
  {e7629ea0-8768-44fd-8f07-bb90c45c03dd}, !- Handle
  Schedule Day 5,                         !- Name
  ,                                       !- Schedule Type Limits Name
  ,                                       !- Interpolate to Timestep
  24,                                     !- Hour 1
  0,                                      !- Minute 1
  0;                                      !- Value Until Time 1

OS:Schedule:Day,
  {20625590-b0e6-45c1-8c6c-7e73b90832ff}, !- Handle
  Always_Off_Summer_Design_Day,           !- Name
  ,                                       !- Schedule Type Limits Name
  ,                                       !- Interpolate to Timestep
  24,                                     !- Hour 1
  0,                                      !- Minute 1
  0;                                      !- Value Until Time 1

OS:Schedule:Ruleset,
  {3e1b0c8a-b0ab-40ce-8f4f-0db8dfcba0ca}, !- Handle
  Deck_Temperature,                       !- Name
  {4700a7c5-f0e6-4b67-ad8a-da8ebcbf6e27}, !- Schedule Type Limits Name
  {4b7a3663-b593-494b-93fb-d5dbe5ca2d49}, !- Default Day Schedule Name
  {236b44df-df8d-4200-aa7b-68d2fde90f29}, !- Summer Design Day Schedule Name
  {9f02daa1-9028-4dc0-84c9-603eb09dd866}; !- Winter Design Day Schedule Name

OS:Schedule:Day,
  {4b7a3663-b593-494b-93fb-d5dbe5ca2d49}, !- Handle
  Deck_Temperature_Default,               !- Name
  {4700a7c5-f0e6-4b67-ad8a-da8ebcbf6e27}, !- Schedule Type Limits Name
  ,                                       !- Interpolate to Timestep
  24,                                     !- Hour 1
  0,                                      !- Minute 1
  12.8;                                   !- Value Until Time 1

OS:Schedule:Day,
  {7ee5e602-f121-486d-b561-aac6e72be73a}, !- Handle
  Schedule Day 6,                         !- Name
  ,                                       !- Schedule Type Limits Name
  ,                                       !- Interpolate to Timestep
  24,                                     !- Hour 1
  0,                                      !- Minute 1
  0;                                      !- Value Until Time 1

OS:Schedule:Day,
  {9f02daa1-9028-4dc0-84c9-603eb09dd866}, !- Handle
  Deck_Temperature_Winter_Design_Day,     !- Name
  {4700a7c5-f0e6-4b67-ad8a-da8ebcbf6e27}, !- Schedule Type Limits Name
  ,                                       !- Interpolate to Timestep
  24,                                     !- Hour 1
  0,                                      !- Minute 1
  12.8;                                   !- Value Until Time 1

OS:Schedule:Day,
  {82fb41e2-6b95-49a9-adf0-8b0f5caa557e}, !- Handle
  Schedule Day 7,                         !- Name
  ,                                       !- Schedule Type Limits Name
  ,                                       !- Interpolate to Timestep
  24,                                     !- Hour 1
  0,                                      !- Minute 1
  0;                                      !- Value Until Time 1

OS:Schedule:Day,
  {236b44df-df8d-4200-aa7b-68d2fde90f29}, !- Handle
  Deck_Temperature_Summer_Design_Day,     !- Name
  {4700a7c5-f0e6-4b67-ad8a-da8ebcbf6e27}, !- Schedule Type Limits Name
  ,                                       !- Interpolate to Timestep
  24,                                     !- Hour 1
  0,                                      !- Minute 1
  12.8;                                   !- Value Until Time 1

OS:Construction,
  {e698da12-c942-44cb-91cc-a055af39760d}, !- Handle
  INT-FLOOR-TOPSIDE,                      !- Name
  ,                                       !- Surface Rendering Name
  {9fb263cc-8174-4993-bc0d-91fd302a7f43}, !- Layer 1
  {031f1610-4c02-40e5-a32c-c49b97a3c798}, !- Layer 2
  {3b4bef16-9533-41ce-a420-9230b391fa7b}; !- Layer 3

OS:Material,
  {9fb263cc-8174-4993-bc0d-91fd302a7f43}, !- Handle
  1/2IN Gypsum,                           !- Name
  Smooth,                                 !- Roughness
  0.0127,                                 !- Thickness {m}
  0.1600,                                 !- Conductivity {W/m-K}
  784.9000,                               !- Density {kg/m3}
  830.0000,                               !- Specific Heat {J/kg-K}
  0.9000,                                 !- Thermal Absorptance
  0.9200,                                 !- Solar Absorptance
  0.9200;                                 !- Visible Absorptance

OS:Material,
  {031f1610-4c02-40e5-a32c-c49b97a3c798}, !- Handle
  4IN CONCRETE HW,                        !- Name
  Rough,                                  !- Roughness
  0.1016,                                 !- Thickness {m}
  1.3110,                                 !- Conductivity {W/m-K}
  2240.0000,                              !- Density {kg/m3}
  836.8000,                               !- Specific Heat {J/kg-K}
  0.9000,                                 !- Thermal Absorptance
  0.7000,                                 !- Solar Absorptance
  0.7000;                                 !- Visible Absorptance

OS:Material:NoMass,
  {3b4bef16-9533-41ce-a420-9230b391fa7b}, !- Handle
  CP02 CARPET PAD,                        !- Name
  VeryRough,                              !- Roughness
  0.2165,                                 !- Thermal Resistance {m2-K/W}
  0.9000,                                 !- Thermal Absorptance
  0.7000,                                 !- Solar Absorptance
  0.8000;                                 !- Visible Absorptance

OS:StandardsInformation:Construction,
  {f53762e6-f508-4f97-a9f3-71000846895d}, !- Handle
  {e698da12-c942-44cb-91cc-a055af39760d}, ! Construction Name
  ,                                       ! Intended Surface Type
  Mass,                                   ! Construction Type
  0,                                      ! Perturbable Layer
  Insulation,                             ! Perturbable Layer Type
  ;                                       ! Other Perturbable Layer Type

OS:Construction,
  {cef0d5ee-bf67-4b00-9368-394d961e817a}, !- Handle
  INT-FLOOR-UNDERSIDE,                    !- Name
  ,                                       !- Surface Rendering Name
  {3b4bef16-9533-41ce-a420-9230b391fa7b}, !- Layer 1
  {031f1610-4c02-40e5-a32c-c49b97a3c798}, !- Layer 2
  {9fb263cc-8174-4993-bc0d-91fd302a7f43}; !- Layer 3

OS:StandardsInformation:Construction,
  {e7d3da0a-457f-4369-ad89-809edfd29050}, !- Handle
  {cef0d5ee-bf67-4b00-9368-394d961e817a}, ! Construction Name
  ,                                       ! Intended Surface Type
  Mass,                                   ! Construction Type
  1,                                      ! Perturbable Layer
  Insulation,                             ! Perturbable Layer Type
  ;                                       ! Other Perturbable Layer Type

OS:Construction,
  {a085e513-568f-4533-9273-e04b97323bdc}, !- Handle
  Standard_Int-Wall,                      !- Name
  ,                                       !- Surface Rendering Name
  {9fb263cc-8174-4993-bc0d-91fd302a7f43}, !- Layer 1
  {9fb263cc-8174-4993-bc0d-91fd302a7f43}; !- Layer 2

OS:StandardsInformation:Construction,
  {f4d3b8e6-513d-49a9-b6f8-327c0f36fb80}, !- Handle
  {a085e513-568f-4533-9273-e04b97323bdc}, ! Construction Name
  ,                                       ! Intended Surface Type
  Mass,                                   ! Construction Type
  0,                                      ! Perturbable Layer
  Insulation,                             ! Perturbable Layer Type
  ;                                       ! Other Perturbable Layer Type

OS:DefaultSurfaceConstructions,
  {9f4cdf21-5598-43ff-b72e-0a4def0c1486}, !- Handle
  Default Surface Constructions 1,        !- Name
  {e698da12-c942-44cb-91cc-a055af39760d}, !- Floor Construction Name
  {a085e513-568f-4533-9273-e04b97323bdc}, !- Wall Construction Name
  {cef0d5ee-bf67-4b00-9368-394d961e817a}; !- Roof Ceiling Construction Name

OS:DefaultConstructionSet,
  {297ed43a-e45b-4f0f-a65f-b8535a301a33}, !- Handle
  Default Construction Set 1,             !- Name
  ,                                       !- Default Exterior Surface Constructions Name
  {9f4cdf21-5598-43ff-b72e-0a4def0c1486}, !- Default Interior Surface Constructions Name
  ,                                       !- Default Ground Contact Surface Constructions Name
  ,                                       !- Default Exterior SubSurface Constructions Name
  ,                                       !- Default Interior SubSurface Constructions Name
  ,                                       !- Interior Partition Construction Name
  ,                                       !- Space Shading Construction Name
  ,                                       !- Building Shading Construction Name
  ;                                       !- Site Shading Construction Name

OS:Building,
  {95f6e624-f52d-411c-a6f0-2587c37ed499}, !- Handle
  Building 1,                             !- Name
  ,                                       !- Building Type
  ,                                       !- North Axis {deg}
  ,                                       !- Nominal Floor to Floor Height {m}
  ,                                       !- Space Type Name
  {297ed43a-e45b-4f0f-a65f-b8535a301a33}, !- Default Construction Set Name
  ;                                       !- Default Schedule Set Name

! Exterior Walls
OS:Construction,
  {2247e98e-af99-49b4-9908-1de96e2d9e6a}, !- Handle
  Masonry_Steel_Frame_Wall,               !- Name
  ,                                       !- Surface Rendering Name
  {8476f92e-1283-4204-a143-de91e4b87a32}, !- Layer 1
  {eb3f9db5-a724-4496-8d53-a01e2a5e9c4b}, !- Layer 2
  {9fb263cc-8174-4993-bc0d-91fd302a7f43}; !- Layer 3

OS:Material,
  {8476f92e-1283-4204-a143-de91e4b87a32}, !- Handle
  M01 100mm brick,                        !- Name
  MediumRough,                            !- Roughness
  0.1016,                                 !- Thickness {m}
  0.89,                                   !- Conductivity {W/m-K}
  1920,                                   !- Density {kg/m3}
  790,                                    !- Specific Heat {J/kg-K}
  0.9000,                                 !- Thermal Absorptance
  0.700,                                  !- Solar Absorptance
  0.700;                                  !- Visible Absorptance

OS:Material,
  {eb3f9db5-a724-4496-8d53-a01e2a5e9c4b}, !- Handle
  Steel Frame Wall Insulation,            !- Name
  MediumRough,                            !- Roughness
  0.0346131490046041,                     !- Thickness {m}
  0.049,                                  !- Conductivity {W/m-K}
  265.0000,                               !- Density {kg/m3}
  836.8000,                               !- Specific Heat {J/kg-K}
  0.9000,                                 !- Thermal Absorptance
  0.7000,                                 !- Solar Absorptance
  0.7000;                                 !- Visible Absorptance

OS:StandardsInformation:Construction,
  {79405322-83c7-4b1e-baf0-d8c746e8ac18}, !- Handle
  {2247e98e-af99-49b4-9908-1de96e2d9e6a}, ! Construction Name
  ,                                       ! Intended Surface Type
  Steel-Framed,                           ! Construction Type
  1,                                      ! Perturbable Layer
  Insulation,                             ! Perturbable Layer Type
  ;                                       ! Other Perturbable Layer Type

! Roof from DOE reference building new warehouse
OS:Construction,
  {beb51130-5006-49ed-a824-972416778e42}, !- Handle
  Shingles_Shakes_Roof,                   !- Name
  ,                                       !- Surface Rendering Name
  {e6d32a82-ffce-4c33-97a4-de0aae8e1602}, !- Layer 1
  {084ba958-61e8-4a09-ba2c-713504b62246}, !- Layer 2
  {9fb263cc-8174-4993-bc0d-91fd302a7f43}; !- Layer 3

OS:Material,
  {e6d32a82-ffce-4c33-97a4-de0aae8e1602}, !- Handle
  Metal Roofing,                          !- Name
  MediumSmooth,                           !- Roughness
  0.0015,                                 !- Thickness {m}
  45.0060,                                !- Conductivity {W/m-K}
  7680.0000,                              !- Density {kg/m3}
  418.4000,                               !- Specific Heat {J/kg-K}
  0.9000,                                 !- Thermal Absorptance
  0.7000,                                 !- Solar Absorptance
  0.3000;                                 !- Visible Absorptance

OS:Material,
  {084ba958-61e8-4a09-ba2c-713504b62246}, !- Handle
  Attic and Other Insulation,             !- Name
  MediumRough,                            !- Roughness
  0.1137277044605,                        !- Thickness {m}
  0.049,                                  !- Conductivity {W/m-K}
  265.0000,                               !- Density {kg/m3}
  836.8000,                               !- Specific Heat {J/kg-K}
  0.9000,                                 !- Thermal Absorptance
  0.7000,                                 !- Solar Absorptance
  0.7000;                                 !- Visible Absorptance

OS:StandardsInformation:Construction,
  {a0a08f02-9f93-46a0-94cc-602d43c2894b}, !- Handle
  {beb51130-5006-49ed-a824-972416778e42}, ! Construction Name
  ,                                       ! Intended Surface Type
  Attic and Other,                        ! Construction Type
  1,                                      ! Perturbable Layer
  Insulation,                             ! Perturbable Layer Type
  ;                                       ! Other Perturbable Layer Type

OS:Construction,
  {4acb07f6-182d-4609-95eb-89e7ad046e2d}, !- Handle
  Insul_slab,                             !- Name
  ,                                       !- Surface Rendering Name
  {603b80d8-ba05-4252-acb7-7fc529216ba8}, !- Layer 1
  {328eefd2-c35b-4e18-84a3-a9819ec5c81e}; !- Layer 2

OS:Material,
  {603b80d8-ba05-4252-acb7-7fc529216ba8}, !- Handle
  Floor Insulation,                       !- Name
  MediumRough,                            !- Roughness
  0.0795,                                 !- Thickness {m}
  0.0450,                                 !- Conductivity {W/m-K}
  265.0000,                               !- Density {kg/m3}
  836.8000,                               !- Specific Heat {J/kg-K}
  0.9000,                                 !- Thermal Absorptance
  0.7000,                                 !- Solar Absorptance
  0.7000;                                 !- Visible Absorptance

OS:Material,
  {328eefd2-c35b-4e18-84a3-a9819ec5c81e}, !- Handle
  MAT-CC05 8 HW CONCRETE,                 !- Name
  Rough,                                  !- Roughness
  0.2032,                                 !- Thickness {m}
  1.3110,                                 !- Conductivity {W/m-K}
  2240.0000,                              !- Density {kg/m3}
  836.8000,                               !- Specific Heat {J/kg-K}
  0.9000,                                 !- Thermal Absorptance
  0.7000,                                 !- Solar Absorptance
  0.7000;                                 !- Visible Absorptance

OS:StandardsInformation:Construction,
  {3c6ee22e-e78f-4d24-b3c0-70eaa94744f7}, !- Handle
  {4acb07f6-182d-4609-95eb-89e7ad046e2d}, ! Construction Name
  ,                                       ! Intended Surface Type
  Exterior Floor:Slab,                    ! Construction Type
  0,                                      ! Perturbable Layer
  Insulation,                             ! Perturbable Layer Type
  ;                                       ! Other Perturbable Layer Type

OS:Construction,
  {cc17c697-d5ea-4dad-9bc0-be40f0d09c0b}, !- Handle
  Insul_slab 1,                           !- Name
  ,                                       !- Surface Rendering Name
  {603b80d8-ba05-4252-acb7-7fc529216ba8}, !- Layer 1
  {328eefd2-c35b-4e18-84a3-a9819ec5c81e}; !- Layer 2

OS:StandardsInformation:Construction,
  {ef789278-9eaf-47c4-b129-a86ae377ee2e}, !- Handle
  {cc17c697-d5ea-4dad-9bc0-be40f0d09c0b}, ! Construction Name
  ,                                       ! Intended Surface Type
  Exterior Floor:Slab,                    ! Construction Type
  0,                                      ! Perturbable Layer
  Insulation,                             ! Perturbable Layer Type
  ;                                       ! Other Perturbable Layer Type

OS:WindowMaterial:SimpleGlazingSystem,
  {dc683362-982d-4ee1-ae1d-11dd3228d813}, !- Handle
  Glazing Layer,                          !- Name
  0.1,                                    !- U-Factor {W/m2-K}
  0.8265,                                 !- Solar Heat Gain Coefficient
  0.7;                                    !- Visible Transmittance

OS:Construction,
  {ea92079c-3078-4d0e-9de0-64d1bc47c0b0}, !- Handle
  fenestration___,                        !- Name
  ,                                       !- Surface Rendering Name
  {dc683362-982d-4ee1-ae1d-11dd3228d813}; !- Layer 1

OS:PlantLoop,
  {67ed97cb-3056-4b4c-8a5f-7f87371abf09}, !- Handle
  Boiler plant 85,                        !- Name
  Water,                                  !- Fluid Type
  ,                                       !- User Defined Fluid Type
  ,                                       !- Plant Equipment Operation Scheme Name
  {830bfe3c-d427-48ed-a4a9-0bb320c7c2fa}, !- Loop Temperature Setpoint Node Name
  ,                                       !- Maximum Loop Temperature {C}
  ,                                       !- Minimum Loop Temperature {C}
  ,                                       !- Maximum Loop Flow Rate {m3/s}
  ,                                       !- Minimum Loop Flow Rate {m3/s}
  Autocalculate,                          !- Plant Loop Volume {m3}
  {32e457f2-e0d8-4c43-baf0-b537e5ec109d}, !- Plant Side Inlet Node Name
  {cab68468-9b2c-4e85-ad0e-1b4d0f4543e7}, !- Plant Side Outlet Node Name
  ,                                       !- Plant Side Branch List Name
  {6f58d3b2-7b2c-4d55-b2e6-e9717ed5ea9f}, !- Demand Side Inlet Node Name
  {99634d9f-aac6-45b3-95e2-c0a160c08f6c}, !- Demand Side Outlet Node Name
  ,                                       !- Demand Side Branch List Name
  ,                                       !- Demand Side Connector List Name
  ,                                       !- Load Distribution Scheme
  ,                                       !- Availability Manager List Name
  ,                                       !- Plant Loop Demand Calculation Scheme
  ,                                       !- Common Pipe Simulation
  ;                                       !- Pressure Simulation Type

OS:Sizing:Plant,
  {b4238dcb-5ac9-460c-bdf8-ddbb9b55f4d0}, !- Handle
  {67ed97cb-3056-4b4c-8a5f-7f87371abf09}, !- Plant or Condenser Loop Name
  Heating,                                !- Loop Type
  82,                                     !- Design Loop Exit Temperature {C}
  11;                                     !- Loop Design Temperature Difference {deltaC}

OS:Node,
  {a3dc90f0-ddea-4dff-820d-e1666b0fc3b8}, !- Handle
  Node 1,                                 !- Name
  {32e457f2-e0d8-4c43-baf0-b537e5ec109d}, !- Inlet Port
  {1e5c0d9c-6e9c-4f71-a2a8-22d4a2690a33}; !- Outlet Port

OS:Node,
  {830bfe3c-d427-48ed-a4a9-0bb320c7c2fa}, !- Handle
  Node 2,                                 !- Name
  {ded892bc-402f-47bb-93d3-ff62c967c308}, !- Inlet Port
  {cab68468-9b2c-4e85-ad0e-1b4d0f4543e7}; !- Outlet Port

OS:Node,
  {edc3745e-6634-4e25-b15a-dbfb2fd972f5}, !- Handle
  Node 3,                                 !- Name
  {312d0d8a-0a4b-41f6-a49c-bd5547c07e09}, !- Inlet Port
  {32d9d9ac-44a6-4827-9d93-88d82a17efb8}; !- Outlet Port

OS:Connector:Mixer,
  {2183bce5-29ce-4b7b-8aa4-4e24a2393316}, !- Handle
  Connector Mixer 1,                      !- Name
  {dfd85632-548a-4f4f-a10e-b4a536eb2c02}, !- Outlet Branch Name
  {465c7c52-801d-414c-a010-05696d2595d7}, !- Inlet Branch Name 1
  {5a92585d-0fe6-439f-b2e8-15660bfe62ca}; !- Inlet Branch Name 2

OS:Connector:Splitter,
  {51398b2a-f63b-469c-8771-292a6bb47aa7}, !- Handle
  Connector Splitter 1,                   !- Name
  {7b797953-c3e5-49cb-9a50-2249430b2513}, !- Inlet Branch Name
  {312d0d8a-0a4b-41f6-a49c-bd5547c07e09}, !- Outlet Branch Name 1
  {f2852f6c-7796-46a7-8364-ba490b08540f}; !- Outlet Branch Name 2

OS:Connection,
  {32e457f2-e0d8-4c43-baf0-b537e5ec109d}, !- Handle
  Connection 1,                           !- Name
  {67ed97cb-3056-4b4c-8a5f-7f87371abf09}, !- Source Object
  11,                                     !- Outlet Port
  {a3dc90f0-ddea-4dff-820d-e1666b0fc3b8}, !- Target Object
  2;                                      !- Inlet Port

OS:Connection,
  {312d0d8a-0a4b-41f6-a49c-bd5547c07e09}, !- Handle
  Connection 3,                           !- Name
  {51398b2a-f63b-469c-8771-292a6bb47aa7}, !- Source Object
  3,                                      !- Outlet Port
  {edc3745e-6634-4e25-b15a-dbfb2fd972f5}, !- Target Object
  2;                                      !- Inlet Port

OS:Connection,
  {cab68468-9b2c-4e85-ad0e-1b4d0f4543e7}, !- Handle
  Connection 6,                           !- Name
  {830bfe3c-d427-48ed-a4a9-0bb320c7c2fa}, !- Source Object
  3,                                      !- Outlet Port
  {67ed97cb-3056-4b4c-8a5f-7f87371abf09}, !- Target Object
  12;                                     !- Inlet Port

OS:Node,
  {44fd1dba-5ad7-46fd-9271-a8eecf2a9947}, !- Handle
  Node 4,                                 !- Name
  {6f58d3b2-7b2c-4d55-b2e6-e9717ed5ea9f}, !- Inlet Port
  {3704d905-d900-4a42-8c0c-b898c363b9ac}; !- Outlet Port

OS:Node,
  {de2b92b5-a525-44dd-9e04-1cc375606d35}, !- Handle
  Node 5,                                 !- Name
  {63e154b3-beeb-4682-a584-86e63301b272}, !- Inlet Port
  {99634d9f-aac6-45b3-95e2-c0a160c08f6c}; !- Outlet Port

OS:Node,
  {d4fd5b16-66ef-46bd-90a5-bcea097606d0}, !- Handle
  Node 6,                                 !- Name
  {ebd2f9d8-1089-48df-bf18-01501bb14880}, !- Inlet Port
  {7f5ce202-5fbd-4bc4-be52-b38cd8234797}; !- Outlet Port

OS:Connector:Mixer,
  {b7665f76-2213-4adb-a0f9-3fbe80ed3884}, !- Handle
  Connector Mixer 2,                      !- Name
  {63e154b3-beeb-4682-a584-86e63301b272}, !- Outlet Branch Name
  {379d86d2-271b-45d1-836e-dda4bbb3f5cd}, !- Inlet Branch Name 1
  {550a1ef7-72a1-4e7e-9b51-bbcdafce35b4}; !- Inlet Branch Name 2

OS:Connector:Splitter,
  {027e9a7d-8197-4e04-8412-b8d9c68c155e}, !- Handle
  Connector Splitter 2,                   !- Name
  {3704d905-d900-4a42-8c0c-b898c363b9ac}, !- Inlet Branch Name
  {ebd2f9d8-1089-48df-bf18-01501bb14880}, !- Outlet Branch Name 1
  {ad32418a-cf40-4d93-b819-68356c099763}; !- Outlet Branch Name 2

OS:Connection,
  {6f58d3b2-7b2c-4d55-b2e6-e9717ed5ea9f}, !- Handle
  Connection 7,                           !- Name
  {67ed97cb-3056-4b4c-8a5f-7f87371abf09}, !- Source Object
  14,                                     !- Outlet Port
  {44fd1dba-5ad7-46fd-9271-a8eecf2a9947}, !- Target Object
  2;                                      !- Inlet Port

OS:Connection,
  {3704d905-d900-4a42-8c0c-b898c363b9ac}, !- Handle
  Connection 8,                           !- Name
  {44fd1dba-5ad7-46fd-9271-a8eecf2a9947}, !- Source Object
  3,                                      !- Outlet Port
  {027e9a7d-8197-4e04-8412-b8d9c68c155e}, !- Target Object
  2;                                      !- Inlet Port

OS:Connection,
  {ebd2f9d8-1089-48df-bf18-01501bb14880}, !- Handle
  Connection 9,                           !- Name
  {027e9a7d-8197-4e04-8412-b8d9c68c155e}, !- Source Object
  3,                                      !- Outlet Port
  {d4fd5b16-66ef-46bd-90a5-bcea097606d0}, !- Target Object
  2;                                      !- Inlet Port

OS:Connection,
  {63e154b3-beeb-4682-a584-86e63301b272}, !- Handle
  Connection 11,                          !- Name
  {b7665f76-2213-4adb-a0f9-3fbe80ed3884}, !- Source Object
  2,                                      !- Outlet Port
  {de2b92b5-a525-44dd-9e04-1cc375606d35}, !- Target Object
  2;                                      !- Inlet Port

OS:Connection,
  {99634d9f-aac6-45b3-95e2-c0a160c08f6c}, !- Handle
  Connection 12,                          !- Name
  {de2b92b5-a525-44dd-9e04-1cc375606d35}, !- Source Object
  3,                                      !- Outlet Port
  {67ed97cb-3056-4b4c-8a5f-7f87371abf09}, !- Target Object
  15;                                     !- Inlet Port

OS:Pump:VariableSpeed,
  {e48121c8-4bab-42ae-954e-ed534662b10b}, !- Handle
  Heating: Pump for Boiler,               !- Name
  {1e5c0d9c-6e9c-4f71-a2a8-22d4a2690a33}, !- Inlet Node Name
  {b7e3ecf5-5a43-4712-9b28-6c19bf34b583}, !- Outlet Node Name
  ,                                       !- Rated Flow Rate {m3/s}
  ,                                       !- Rated Pump Head {Pa}
  ,                                       !- Rated Power Consumption {W}
  ,                                       !- Motor Efficiency
  ,                                       !- Fraction of Motor Inefficiencies to Fluid Stream
  ,                                       !- Coefficient 1 of the Part Load Performance Curve
  ,                                       !- Coefficient 2 of the Part Load Performance Curve
  ,                                       !- Coefficient 3 of the Part Load Performance Curve
  ,                                       !- Coefficient 4 of the Part Load Performance Curve
  ,                                       !- Minimum Flow Rate {m3/s}
  Intermittent;                           !- Pump Control Type

OS:Node,
  {70472f1d-a101-405c-b8b7-55bcc2aa72a5}, !- Handle
  Node 7,                                 !- Name