
OS:Version,
  {1a19e9fe-3484-45b4-8286-68b0656f869f}, !- Handle
  1.0.6;                                  !- Version Identifier

OS:Schedule:Ruleset,
  {6bcb2e0c-14e9-4781-8ce6-21ae19d5b600}, !- Handle
  Always_On,                              !- Name
  {a233a078-5c25-4e67-85f0-c026ce34f61f}, !- Schedule Type Limits Name
  {e56cbd58-8f4f-47f0-aa94-8b83459ad95f}, !- Default Day Schedule Name
  {cfe0977c-b1df-49b1-9b7e-6250284dd649}, !- Summer Design Day Schedule Name
  {58ddfbde-cfe4-4d7a-9f4b-3b904bc1cf31}; !- Winter Design Day Schedule Name

OS:Schedule:Day,
  {e56cbd58-8f4f-47f0-aa94-8b83459ad95f}, !- Handle
  Always_On_Default,                      !- Name
  {a233a078-5c25-4e67-85f0-c026ce34f61f}, !- Schedule Type Limits Name
  ,                                       !- Interpolate to Timestep
  24,                                     !- Hour 1
  0,                                      !- Minute 1
  1;                                      !- Value Until Time 1

OS:Schedule:Day,
  {e90f13b5-4603-43ce-aff3-42853de16c2f}, !- Handle
  Schedule Day 2,                         !- Name
  ,                                       !- Schedule Type Limits Name
  ,                                       !- Interpolate to Timestep
  24,                                     !- Hour 1
  0,                                      !- Minute 1
  0;                                      !- Value Until Time 1

OS:Schedule:Day,
  {58ddfbde-cfe4-4d7a-9f4b-3b904bc1cf31}, !- Handle
  Always_On_Winter_Design_Day,            !- Name
  {a233a078-5c25-4e67-85f0-c026ce34f61f}, !- Schedule Type Limits Name
  ,                                       !- Interpolate to Timestep
  24,                                     !- Hour 1
  0,                                      !- Minute 1
  1;                                      !- Value Until Time 1

OS:Schedule:Day,
  {2579a882-b23c-43fc-8508-f6ed8c34dfcd}, !- Handle
  Schedule Day 3,                         !- Name
  ,                                       !- Schedule Type Limits Name
  ,                                       !- Interpolate to Timestep
  24,                                     !- Hour 1
  0,                                      !- Minute 1
  0;                                      !- Value Until Time 1

OS:Schedule:Day,
  {cfe0977c-b1df-49b1-9b7e-6250284dd649}, !- Handle
  Always_On_Summer_Design_Day,            !- Name
  {a233a078-5c25-4e67-85f0-c026ce34f61f}, !- Schedule Type Limits Name
  ,                                       !- Interpolate to Timestep
  24,                                     !- Hour 1
  0,                                      !- Minute 1
  1;                                      !- Value Until Time 1

OS:Schedule:Ruleset,
  {d474519d-daa1-48e8-9915-6178e474556d}, !- Handle
  Always_Off,                             !- Name
  ,                                       !- Schedule Type Limits Name
  {a3c8e3fc-959e-4f28-bf57-fa928abdb3fa}, !- Default Day Schedule Name
  {8a1a9fc2-3536-4fec-907e-e020e4eb7d5e}, !- Summer Design Day Schedule Name
  {34083c04-d7c5-4a1f-b3bd-492f19a55005}; !- Winter Design Day Schedule Name

OS:Schedule:Day,
  {a3c8e3fc-959e-4f28-bf57-fa928abdb3fa}, !- Handle
  Always_Off_Default,                     !- Name
  ,                                       !- Schedule Type Limits Name
  ,                                       !- Interpolate to Timestep
  24,                                     !- Hour 1
  0,                                      !- Minute 1
  0;                                      !- Value Until Time 1

OS:Schedule:Day,
  {08fc886c-9937-4f9f-9ebf-27b6f04efb5f}, !- Handle
  Schedule Day 4,                         !- Name
  ,                                       !- Schedule Type Limits Name
  ,                                       !- Interpolate to Timestep
  24,                                     !- Hour 1
  0,                                      !- Minute 1
  0;                                      !- Value Until Time 1

OS:Schedule:Day,
  {34083c04-d7c5-4a1f-b3bd-492f19a55005}, !- Handle
  Always_Off_Winter_Design_Day,           !- Name
  ,                                       !- Schedule Type Limits Name
  ,                                       !- Interpolate to Timestep
  24,                                     !- Hour 1
  0,                                      !- Minute 1
  0;                                      !- Value Until Time 1

OS:Schedule:Day,
  {bf8095df-bb95-42e4-9140-49e3e86230a9}, !- Handle
  Schedule Day 5,                         !- Name
  ,                                       !- Schedule Type Limits Name
  ,                                       !- Interpolate to Timestep
  24,                                     !- Hour 1
  0,                                      !- Minute 1
  0;                                      !- Value Until Time 1

OS:Schedule:Day,
  {8a1a9fc2-3536-4fec-907e-e020e4eb7d5e}, !- Handle
  Always_Off_Summer_Design_Day,           !- Name
  ,                                       !- Schedule Type Limits Name
  ,                                       !- Interpolate to Timestep
  24,                                     !- Hour 1
  0,                                      !- Minute 1
  0;                                      !- Value Until Time 1

OS:Schedule:Ruleset,
  {2e7dc00f-7e39-43ca-9ba5-c49bc90ff33c}, !- Handle
  Deck_Temperature,                       !- Name
  {7300272f-0092-4255-bccb-d7311d079f47}, !- Schedule Type Limits Name
  {017fc544-7d52-4ce1-87bd-d18a99b71c0a}, !- Default Day Schedule Name
  {fb52f95d-a0c2-48da-9bf0-9f08915347b4}, !- Summer Design Day Schedule Name
  {bfdbdd8b-1fd9-4b95-92ce-658e9511d376}; !- Winter Design Day Schedule Name

OS:Schedule:Day,
  {017fc544-7d52-4ce1-87bd-d18a99b71c0a}, !- Handle
  Deck_Temperature_Default,               !- Name
  {7300272f-0092-4255-bccb-d7311d079f47}, !- Schedule Type Limits Name
  ,                                       !- Interpolate to Timestep
  24,                                     !- Hour 1
  0,                                      !- Minute 1
  12.8;                                   !- Value Until Time 1

OS:Schedule:Day,
  {853e2688-457f-40b8-8093-7756a976d9ae}, !- Handle
  Schedule Day 6,                         !- Name
  ,                                       !- Schedule Type Limits Name
  ,                                       !- Interpolate to Timestep
  24,                                     !- Hour 1
  0,                                      !- Minute 1
  0;                                      !- Value Until Time 1

OS:Schedule:Day,
  {bfdbdd8b-1fd9-4b95-92ce-658e9511d376}, !- Handle
  Deck_Temperature_Winter_Design_Day,     !- Name
  {7300272f-0092-4255-bccb-d7311d079f47}, !- Schedule Type Limits Name
  ,                                       !- Interpolate to Timestep
  24,                                     !- Hour 1
  0,                                      !- Minute 1
  12.8;                                   !- Value Until Time 1

OS:Schedule:Day,
  {46cf19d8-aa78-4d07-ba95-467e2be89bbe}, !- Handle
  Schedule Day 7,                         !- Name
  ,                                       !- Schedule Type Limits Name
  ,                                       !- Interpolate to Timestep
  24,                                     !- Hour 1
  0,                                      !- Minute 1
  0;                                      !- Value Until Time 1

OS:Schedule:Day,
  {fb52f95d-a0c2-48da-9bf0-9f08915347b4}, !- Handle
  Deck_Temperature_Summer_Design_Day,     !- Name
  {7300272f-0092-4255-bccb-d7311d079f47}, !- Schedule Type Limits Name
  ,                                       !- Interpolate to Timestep
  24,                                     !- Hour 1
  0,                                      !- Minute 1
  12.8;                                   !- Value Until Time 1

OS:Construction,
  {d2a57b3c-2a22-4434-8591-0cc534a21854}, !- Handle
  INT-FLOOR-TOPSIDE,                      !- Name
  ,                                       !- Surface Rendering Name
  {78a60a57-e862-468e-859c-1f19ae916c25}, !- Layer 1
  {d92012ea-b484-4658-b71d-0567b5cb30be}, !- Layer 2
  {64f2e837-63ce-4e54-91d7-6faaa6cf1837}; !- Layer 3

OS:Material,
  {78a60a57-e862-468e-859c-1f19ae916c25}, !- Handle
  1/2IN Gypsum,                           !- Name
  Smooth,                                 !- Roughness
  0.0127,                                 !- Thickness {m}
  0.1600,                                 !- Conductivity {W/m-K}
  784.9000,                               !- Density {kg/m3}
  830.0000,                               !- Specific Heat {J/kg-K}
  0.9000,                                 !- Thermal Absorptance
  0.9200,                                 !- Solar Absorptance
  0.9200;                                 !- Visible Absorptance

OS:Material,
  {d92012ea-b484-4658-b71d-0567b5cb30be}, !- Handle
  4IN CONCRETE HW,                        !- Name
  Rough,                                  !- Roughness
  0.1016,                                 !- Thickness {m}
  1.3110,                                 !- Conductivity {W/m-K}
  2240.0000,                              !- Density {kg/m3}
  836.8000,                               !- Specific Heat {J/kg-K}
  0.9000,                                 !- Thermal Absorptance
  0.7000,                                 !- Solar Absorptance
  0.7000;                                 !- Visible Absorptance

OS:Material:NoMass,
  {64f2e837-63ce-4e54-91d7-6faaa6cf1837}, !- Handle
  CP02 CARPET PAD,                        !- Name
  VeryRough,                              !- Roughness
  0.2165,                                 !- Thermal Resistance {m2-K/W}
  0.9000,                                 !- Thermal Absorptance
  0.7000,                                 !- Solar Absorptance
  0.8000;                                 !- Visible Absorptance

OS:StandardsInformation:Construction,
  {7d57d2f4-c344-4127-bb5a-4f66d7e47e92}, !- Handle
  {d2a57b3c-2a22-4434-8591-0cc534a21854}, ! Construction Name
  ,                                       ! Intended Surface Type
  Mass,                                   ! Construction Type
  0,                                      ! Perturbable Layer
  Insulation,                             ! Perturbable Layer Type
  ;                                       ! Other Perturbable Layer Type

OS:Construction,
  {f3900e62-741d-492d-97cb-e88602c672dd}, !- Handle
  INT-FLOOR-UNDERSIDE,                    !- Name
  ,                                       !- Surface Rendering Name
  {64f2e837-63ce-4e54-91d7-6faaa6cf1837}, !- Layer 1
  {d92012ea-b484-4658-b71d-0567b5cb30be}, !- Layer 2
  {78a60a57-e862-468e-859c-1f19ae916c25}; !- Layer 3

OS:StandardsInformation:Construction,
  {3a33eff1-61b0-4506-898e-0710bbd839f4}, !- Handle
  {f3900e62-741d-492d-97cb-e88602c672dd}, ! Construction Name
  ,                                       ! Intended Surface Type
  Mass,                                   ! Construction Type
  1,                                      ! Perturbable Layer
  Insulation,                             ! Perturbable Layer Type
  ;                                       ! Other Perturbable Layer Type

OS:Construction,
  {fe426d70-d6e4-4845-98c0-6e5820ddd114}, !- Handle
  Standard_Int-Wall,                      !- Name
  ,                                       !- Surface Rendering Name
  {78a60a57-e862-468e-859c-1f19ae916c25}, !- Layer 1
  {78a60a57-e862-468e-859c-1f19ae916c25}; !- Layer 2

OS:StandardsInformation:Construction,
  {6c298fa3-6da3-48ae-86c7-e1935b1ea5b4}, !- Handle
  {fe426d70-d6e4-4845-98c0-6e5820ddd114}, ! Construction Name
  ,                                       ! Intended Surface Type
  Mass,                                   ! Construction Type
  0,                                      ! Perturbable Layer
  Insulation,                             ! Perturbable Layer Type
  ;                                       ! Other Perturbable Layer Type

OS:DefaultSurfaceConstructions,
  {166ac319-4186-4ce2-8015-8d898e5e2595}, !- Handle
  Default Surface Constructions 1,        !- Name
  {d2a57b3c-2a22-4434-8591-0cc534a21854}, !- Floor Construction Name
  {fe426d70-d6e4-4845-98c0-6e5820ddd114}, !- Wall Construction Name
  {f3900e62-741d-492d-97cb-e88602c672dd}; !- Roof Ceiling Construction Name

OS:DefaultConstructionSet,
  {766480d0-54d8-4e6c-8c6c-21eb789cae9e}, !- Handle
  Default Construction Set 1,             !- Name
  ,                                       !- Default Exterior Surface Constructions Name
  {166ac319-4186-4ce2-8015-8d898e5e2595}, !- Default Interior Surface Constructions Name
  ,                                       !- Default Ground Contact Surface Constructions Name
  ,                                       !- Default Exterior SubSurface Constructions Name
  ,                                       !- Default Interior SubSurface Constructions Name
  ,                                       !- Interior Partition Construction Name
  ,                                       !- Space Shading Construction Name
  ,                                       !- Building Shading Construction Name
  ;                                       !- Site Shading Construction Name

OS:Building,
  {2c99e90c-1629-4fc1-ba4c-594dc42274a9}, !- Handle
  Building 1,                             !- Name
  ,                                       !- Building Type
  ,                                       !- North Axis {deg}
  ,                                       !- Nominal Floor to Floor Height {m}
  ,                                       !- Space Type Name
  {766480d0-54d8-4e6c-8c6c-21eb789cae9e}, !- Default Construction Set Name
  ;                                       !- Default Schedule Set Name

! Wall from DOE reference building new warehouse
OS:Construction,
  {fbad1352-76f1-4f2f-af6b-b8f44145f23a}, !- Handle
  Metal_Building_Wall,                    !- Name
  ,                                       !- Surface Rendering Name
  {6b7479a5-5982-417a-a4ce-8574bdc706fb}, !- Layer 1
  {be348cca-4cf3-46a3-a089-e6d6e1ccb22d}, !- Layer 2
  {78a60a57-e862-468e-859c-1f19ae916c25}; !- Layer 3

OS:Material,
  {6b7479a5-5982-417a-a4ce-8574bdc706fb}, !- Handle
  Metal Siding,                           !- Name
  Smooth,                                 !- Roughness
  0.0015,                                 !- Thickness {m}
  44.9600,                                !- Conductivity {W/m-K}
  7688.8600,                              !- Density {kg/m3}
  410.0000,                               !- Specific Heat {J/kg-K}
  0.9000,                                 !- Thermal Absorptance
  0.2000,                                 !- Solar Absorptance
  0.2000;                                 !- Visible Absorptance

OS:Material,
  {be348cca-4cf3-46a3-a089-e6d6e1ccb22d}, !- Handle
  Metal Building Wall Insulation,         !- Name
  MediumRough,                            !- Roughness
  0.0377717323072563,                     !- Thickness {m}
  0.049,                                  !- Conductivity {W/m-K}
  265.0000,                               !- Density {kg/m3}
  836.8000,                               !- Specific Heat {J/kg-K}
  0.9000,                                 !- Thermal Absorptance
  0.7000,                                 !- Solar Absorptance
  0.7000;                                 !- Visible Absorptance

OS:StandardsInformation:Construction,
  {91cdc851-1967-4213-a39f-ef4e64ee5a6c}, !- Handle
  {fbad1352-76f1-4f2f-af6b-b8f44145f23a}, ! Construction Name
  ,                                       ! Intended Surface Type
  Metal-Building,                         ! Construction Type
  1,                                      ! Perturbable Layer
  Insulation,                             ! Perturbable Layer Type
  ;                                       ! Other Perturbable Layer Type

! Roof from DOE reference building new warehouse
OS:Construction,
  {0e842ed1-e30e-4b18-b7ed-a64b9a7e4db5}, !- Handle
  Shingles_Shakes_Roof,                   !- Name
  ,                                       !- Surface Rendering Name
  {01594920-ea93-4863-80b3-b19335d689c1}, !- Layer 1
  {d314b31e-c0f5-4ac8-b2dd-41ecd5b2c17c}, !- Layer 2
  {78a60a57-e862-468e-859c-1f19ae916c25}; !- Layer 3

OS:Material,
  {01594920-ea93-4863-80b3-b19335d689c1}, !- Handle
  Metal Roofing,                          !- Name
  MediumSmooth,                           !- Roughness
  0.0015,                                 !- Thickness {m}
  45.0060,                                !- Conductivity {W/m-K}
  7680.0000,                              !- Density {kg/m3}
  418.4000,                               !- Specific Heat {J/kg-K}
  0.9000,                                 !- Thermal Absorptance
  0.7000,                                 !- Solar Absorptance
  0.3000;                                 !- Visible Absorptance

OS:Material,
  {d314b31e-c0f5-4ac8-b2dd-41ecd5b2c17c}, !- Handle
  Attic and Other Insulation,             !- Name
  MediumRough,                            !- Roughness
  0.1137277044605,                        !- Thickness {m}
  0.049,                                  !- Conductivity {W/m-K}
  265.0000,                               !- Density {kg/m3}
  836.8000,                               !- Specific Heat {J/kg-K}
  0.9000,                                 !- Thermal Absorptance
  0.7000,                                 !- Solar Absorptance
  0.7000;                                 !- Visible Absorptance

OS:StandardsInformation:Construction,
  {8fe8593e-46cd-4d45-b721-4049d8855d73}, !- Handle
  {0e842ed1-e30e-4b18-b7ed-a64b9a7e4db5}, ! Construction Name
  ,                                       ! Intended Surface Type
  Attic and Other,                        ! Construction Type
  1,                                      ! Perturbable Layer
  Insulation,                             ! Perturbable Layer Type
  ;                                       ! Other Perturbable Layer Type

OS:Construction,
  {11d3976c-db11-4272-8860-bcf71be2e92b}, !- Handle
  Insul_slab,                             !- Name
  ,                                       !- Surface Rendering Name
  {1bfc88a7-82db-40e2-8d88-738df5ebb945}, !- Layer 1
  {03a4ad92-7bb1-4199-8faa-ec96d56f5f19}; !- Layer 2

OS:Material,
  {1bfc88a7-82db-40e2-8d88-738df5ebb945}, !- Handle
  Floor Insulation,                       !- Name
  MediumRough,                            !- Roughness
  0.0795,                                 !- Thickness {m}
  0.0450,                                 !- Conductivity {W/m-K}
  265.0000,                               !- Density {kg/m3}
  836.8000,                               !- Specific Heat {J/kg-K}
  0.9000,                                 !- Thermal Absorptance
  0.7000,                                 !- Solar Absorptance
  0.7000;                                 !- Visible Absorptance

OS:Material,
  {03a4ad92-7bb1-4199-8faa-ec96d56f5f19}, !- Handle
  MAT-CC05 8 HW CONCRETE,                 !- Name
  Rough,                                  !- Roughness
  0.2032,                                 !- Thickness {m}
  1.3110,                                 !- Conductivity {W/m-K}
  2240.0000,                              !- Density {kg/m3}
  836.8000,                               !- Specific Heat {J/kg-K}
  0.9000,                                 !- Thermal Absorptance
  0.7000,                                 !- Solar Absorptance
  0.7000;                                 !- Visible Absorptance

OS:StandardsInformation:Construction,
  {4628bc3c-88da-4f1d-b212-aebea297920d}, !- Handle
  {11d3976c-db11-4272-8860-bcf71be2e92b}, ! Construction Name
  ,                                       ! Intended Surface Type
  Exterior Floor:Slab,                    ! Construction Type
  0,                                      ! Perturbable Layer
  Insulation,                             ! Perturbable Layer Type
  ;                                       ! Other Perturbable Layer Type

OS:WindowMaterial:SimpleGlazingSystem,
  {3fa35dc1-e09e-4799-a80a-1b11441807f2}, !- Handle
  Glazing Layer,                          !- Name
  4.14513209830427,                       !- U-Factor {W/m2-K}
  0.5133,                                 !- Solar Heat Gain Coefficient
  0.7;                                    !- Visible Transmittance

OS:Construction,
  {44c4d937-bb8d-42c8-a0db-f6670a14c3b6}, !- Handle
  fenestration___,                        !- Name
  ,                                       !- Surface Rendering Name
  {3fa35dc1-e09e-4799-a80a-1b11441807f2}; !- Layer 1

OS:PlantLoop,
  {fbe9299d-32c8-4229-87e5-a76617f45e91}, !- Handle
  Boiler plant 95,                        !- Name
  Water,                                  !- Fluid Type
  ,                                       !- User Defined Fluid Type
  ,                                       !- Plant Equipment Operation Scheme Name
  {f8854dfc-11b5-4366-a4f4-353ecd3cc4f9}, !- Loop Temperature Setpoint Node Name
  ,                                       !- Maximum Loop Temperature {C}
  ,                                       !- Minimum Loop Temperature {C}
  ,                                       !- Maximum Loop Flow Rate {m3/s}
  ,                                       !- Minimum Loop Flow Rate {m3/s}
  Autocalculate,                          !- Plant Loop Volume {m3}
  {03dedf39-804a-43ed-bd21-3ce603b4d23a}, !- Plant Side Inlet Node Name
  {b2f268bc-4817-4f5d-96ec-7dfbe875ad09}, !- Plant Side Outlet Node Name
  ,                                       !- Plant Side Branch List Name
  {809998fd-a14c-464f-9fe1-9fa68ca8b655}, !- Demand Side Inlet Node Name
  {c68df893-471e-43f3-a8a4-63d43e741c19}, !- Demand Side Outlet Node Name
  ,                                       !- Demand Side Branch List Name
  ,                                       !- Demand Side Connector List Name
  ,                                       !- Load Distribution Scheme
  ,                                       !- Availability Manager List Name
  ,                                       !- Plant Loop Demand Calculation Scheme
  ,                                       !- Common Pipe Simulation
  ;                                       !- Pressure Simulation Type

OS:Sizing:Plant,
  {370f65ac-4059-49d2-bb07-0662248504ab}, !- Handle
  {fbe9299d-32c8-4229-87e5-a76617f45e91}, !- Plant or Condenser Loop Name
  Heating,                                !- Loop Type
  82,                                     !- Design Loop Exit Temperature {C}
  11;                                     !- Loop Design Temperature Difference {deltaC}

OS:Node,
  {56e73715-cab4-4c26-baa7-e4d23e202bd0}, !- Handle
  Node 1,                                 !- Name
  {03dedf39-804a-43ed-bd21-3ce603b4d23a}, !- Inlet Port
  {94be7589-b572-49c6-9784-c0bfbb8d9421}; !- Outlet Port

OS:Node,
  {f8854dfc-11b5-4366-a4f4-353ecd3cc4f9}, !- Handle
  Node 2,                                 !- Name
  {440defeb-85bc-4bb2-9449-d6b702609bd6}, !- Inlet Port
  {b2f268bc-4817-4f5d-96ec-7dfbe875ad09}; !- Outlet Port

OS:Node,
  {7d6784e6-23c6-4dda-97c3-868ce0fe0ac7}, !- Handle
  Node 3,                                 !- Name
  {15325d11-8173-49ac-ab91-c65487fc174a}, !- Inlet Port
  {cfa7771f-10eb-49c0-a66b-62d3d46b9840}; !- Outlet Port

OS:Connector:Mixer,
  {f101caee-5bd7-46cd-afcf-21dd3360e6eb}, !- Handle
  Connector Mixer 1,                      !- Name
  {deb69cd8-71d7-4722-a0da-a0e20b768c5d}, !- Outlet Branch Name
  {70c94588-6e82-4299-8b21-8cf834a9ba98}, !- Inlet Branch Name 1
  {fea1c9c2-4203-4425-bedf-fdc85f4972de}; !- Inlet Branch Name 2

OS:Connector:Splitter,
  {35b4aabe-1d4c-40d9-9e22-8f61dfa470f7}, !- Handle
  Connector Splitter 1,                   !- Name
  {a4465573-c0fd-452e-b948-54eed4cbf734}, !- Inlet Branch Name
  {15325d11-8173-49ac-ab91-c65487fc174a}, !- Outlet Branch Name 1
  {8ac83db4-7cb4-4246-9210-d53760256ab6}; !- Outlet Branch Name 2

OS:Connection,
  {03dedf39-804a-43ed-bd21-3ce603b4d23a}, !- Handle
  Connection 1,                           !- Name
  {fbe9299d-32c8-4229-87e5-a76617f45e91}, !- Source Object
  11,                                     !- Outlet Port
  {56e73715-cab4-4c26-baa7-e4d23e202bd0}, !- Target Object
  2;                                      !- Inlet Port

OS:Connection,
  {15325d11-8173-49ac-ab91-c65487fc174a}, !- Handle
  Connection 3,                           !- Name
  {35b4aabe-1d4c-40d9-9e22-8f61dfa470f7}, !- Source Object
  3,                                      !- Outlet Port
  {7d6784e6-23c6-4dda-97c3-868ce0fe0ac7}, !- Target Object
  2;                                      !- Inlet Port

OS:Connection,
  {b2f268bc-4817-4f5d-96ec-7dfbe875ad09}, !- Handle
  Connection 6,                           !- Name
  {f8854dfc-11b5-4366-a4f4-353ecd3cc4f9}, !- Source Object
  3,                                      !- Outlet Port
  {fbe9299d-32c8-4229-87e5-a76617f45e91}, !- Target Object
  12;                                     !- Inlet Port

OS:Node,
  {86803915-c1e6-45d4-9451-36395ecb5f73}, !- Handle
  Node 4,                                 !- Name
  {809998fd-a14c-464f-9fe1-9fa68ca8b655}, !- Inlet Port
  {9267353a-85e8-41a5-b02d-adf41a8e0a35}; !- Outlet Port

OS:Node,
  {328cce71-0894-49b9-b4af-31503297e09d}, !- Handle
  Node 5,                                 !- Name
  {d7e778a2-4513-48f7-a550-8846d70e6580}, !- Inlet Port
  {c68df893-471e-43f3-a8a4-63d43e741c19}; !- Outlet Port

OS:Node,
  {699069b2-c15a-478f-996b-f91426704889}, !- Handle
  Node 6,                                 !- Name
  {5a964588-08ea-4ef8-856e-90de813e1d6d}, !- Inlet Port
  {4f9fb32d-21e8-40b4-9d6a-b2890fd2cd92}; !- Outlet Port

OS:Connector:Mixer,
  {09893eb3-72ae-47c3-b63c-777f7f57bd52}, !- Handle
  Connector Mixer 2,                      !- Name
  {d7e778a2-4513-48f7-a550-8846d70e6580}, !- Outlet Branch Name
  {2af2130e-b0fc-4a8d-b31c-7bcbb0f06dfb}, !- Inlet Branch Name 1
  {e0bf2182-1cc5-4265-8332-797a8a6d20f3}; !- Inlet Branch Name 2

OS:Connector:Splitter,
  {db2adef0-408d-4a3b-b907-ef4e35f357cc}, !- Handle
  Connector Splitter 2,                   !- Name
  {9267353a-85e8-41a5-b02d-adf41a8e0a35}, !- Inlet Branch Name
  {5a964588-08ea-4ef8-856e-90de813e1d6d}, !- Outlet Branch Name 1
  {558f2a25-526e-4f7d-a6a2-c7c6e1736d78}; !- Outlet Branch Name 2

OS:Connection,
  {809998fd-a14c-464f-9fe1-9fa68ca8b655}, !- Handle
  Connection 7,                           !- Name
  {fbe9299d-32c8-4229-87e5-a76617f45e91}, !- Source Object
  14,                                     !- Outlet Port
  {86803915-c1e6-45d4-9451-36395ecb5f73}, !- Target Object
  2;                                      !- Inlet Port

OS:Connection,
  {9267353a-85e8-41a5-b02d-adf41a8e0a35}, !- Handle
  Connection 8,                           !- Name
  {86803915-c1e6-45d4-9451-36395ecb5f73}, !- Source Object
  3,                                      !- Outlet Port
  {db2adef0-408d-4a3b-b907-ef4e35f357cc}, !- Target Object
  2;                                      !- Inlet Port

OS:Connection,
  {5a964588-08ea-4ef8-856e-90de813e1d6d}, !- Handle
  Connection 9,                           !- Name
  {db2adef0-408d-4a3b-b907-ef4e35f357cc}, !- Source Object
  3,                                      !- Outlet Port
  {699069b2-c15a-478f-996b-f91426704889}, !- Target Object
  2;                                      !- Inlet Port

OS:Connection,
  {d7e778a2-4513-48f7-a550-8846d70e6580}, !- Handle
  Connection 11,                          !- Name
  {09893eb3-72ae-47c3-b63c-777f7f57bd52}, !- Source Object
  2,                                      !- Outlet Port
  {328cce71-0894-49b9-b4af-31503297e09d}, !- Target Object
  2;                                      !- Inlet Port

OS:Connection,
  {c68df893-471e-43f3-a8a4-63d43e741c19}, !- Handle
  Connection 12,                          !- Name
  {328cce71-0894-49b9-b4af-31503297e09d}, !- Source Object
  3,                                      !- Outlet Port
  {fbe9299d-32c8-4229-87e5-a76617f45e91}, !- Target Object
  15;                                     !- Inlet Port

OS:Pump:VariableSpeed,
  {1d1bc0e0-97bf-4ec4-83db-2cfeba252946}, !- Handle
  Heating: Pump for Boiler,               !- Name
  {94be7589-b572-49c6-9784-c0bfbb8d9421}, !- Inlet Node Name
  {74f7186a-ca78-4ec3-80fd-9f1cc96ff556}, !- Outlet Node Name
  ,                                       !- Rated Flow Rate {m3/s}
  ,                                       !- Rated Pump Head {Pa}
  ,                                       !- Rated Power Consumption {W}
  ,                                       !- Motor Efficiency
  ,                                       !- Fraction of Motor Inefficiencies to Fluid Stream
  ,                                       !- Coefficient 1 of the Part Load Performance Curve
  ,                                       !- Coefficient 2 of the Part Load Performance Curve
  ,                                       !- Coefficient 3 of the Part Load Performance Curve
  ,                                       !- Coefficient 4 of the Part Load Performance Curve
  ,                                       !- Minimum Flow Rate {m3/s}
  Intermittent;                           !- Pump Control Type

OS:Node,
  {a7071d46-45f4-4749-8b6b-0bd83f730954}, !- Handle
  Node 7,                                 !- Name
  {74f7186a-ca78-4ec3-80fd-9f1cc96ff556}, !- Inlet Port
  {a4465573-c0fd-452e-b948-54eed4cbf734}; !- Outlet Port

OS:Connection,
  {94be7589-b572-49c6-9784-c0bfbb8d9421}, !- Handle
  Connection 2,                           !- Name
  {56e73715-cab4-4c26-baa7-e4d23e202bd0}, !- Source Object
  3,                                      !- Outlet Port
  {1d1bc0e0-97bf-4ec4-83db-2cfeba252946}, !- Target Object
  2;                                      !- Inlet Port

OS:Connection,
  {74f7186a-ca78-4ec3-80fd-9f1cc96ff556}, !- Handle
  Connection 13,                          !- Name
  {1d1bc0e0-97bf-4ec4-83db-2cfeba252946}, !- Source Object
  3,                                      !- Outlet Port
  {a7071d46-45f4-4749-8b6b-0bd83f730954}, !- Target Object