
OS:Version,
  {ed3cbacf-3bb0-4f8e-892d-f7a05d3b3376}, !- Handle
  1.0.6;                                  !- Version Identifier

OS:Schedule:Ruleset,
  {98e3769d-1211-4e84-847b-3d4f0e98a0e9}, !- Handle
  Always_On,                              !- Name
  {c775cf46-ab99-4be8-8c5e-5a4142e2f4ac}, !- Schedule Type Limits Name
  {96f64504-8fce-47c5-b4c4-0faa238e7832}, !- Default Day Schedule Name
  {c15402f2-c908-4e4a-a758-5d641fac459d}, !- Summer Design Day Schedule Name
  {24999666-e38b-4f54-b651-1a9168a5bc01}; !- Winter Design Day Schedule Name

OS:Schedule:Day,
  {96f64504-8fce-47c5-b4c4-0faa238e7832}, !- Handle
  Always_On_Default,                      !- Name
  {c775cf46-ab99-4be8-8c5e-5a4142e2f4ac}, !- Schedule Type Limits Name
  ,                                       !- Interpolate to Timestep
  24,                                     !- Hour 1
  0,                                      !- Minute 1
  1;                                      !- Value Until Time 1

OS:Schedule:Day,
  {088234bb-16d5-4580-ae1e-fe75f39e5097}, !- Handle
  Schedule Day 2,                         !- Name
  ,                                       !- Schedule Type Limits Name
  ,                                       !- Interpolate to Timestep
  24,                                     !- Hour 1
  0,                                      !- Minute 1
  0;                                      !- Value Until Time 1

OS:Schedule:Day,
  {24999666-e38b-4f54-b651-1a9168a5bc01}, !- Handle
  Always_On_Winter_Design_Day,            !- Name
  {c775cf46-ab99-4be8-8c5e-5a4142e2f4ac}, !- Schedule Type Limits Name
  ,                                       !- Interpolate to Timestep
  24,                                     !- Hour 1
  0,                                      !- Minute 1
  1;                                      !- Value Until Time 1

OS:Schedule:Day,
  {24c69f30-fca8-4b80-817b-ff590ec4d83b}, !- Handle
  Schedule Day 3,                         !- Name
  ,                                       !- Schedule Type Limits Name
  ,                                       !- Interpolate to Timestep
  24,                                     !- Hour 1
  0,                                      !- Minute 1
  0;                                      !- Value Until Time 1

OS:Schedule:Day,
  {c15402f2-c908-4e4a-a758-5d641fac459d}, !- Handle
  Always_On_Summer_Design_Day,            !- Name
  {c775cf46-ab99-4be8-8c5e-5a4142e2f4ac}, !- Schedule Type Limits Name
  ,                                       !- Interpolate to Timestep
  24,                                     !- Hour 1
  0,                                      !- Minute 1
  1;                                      !- Value Until Time 1

OS:Schedule:Ruleset,
  {d573eef0-be18-43cc-93ec-c903c0f0b0ec}, !- Handle
  Always_Off,                             !- Name
  ,                                       !- Schedule Type Limits Name
  {36a9cd14-3462-492e-8124-2ae47132a2ae}, !- Default Day Schedule Name
  {1febfec4-f724-42c2-9048-93be099b766b}, !- Summer Design Day Schedule Name
  {670160b1-1a69-4c97-96b0-5c7316ce784d}; !- Winter Design Day Schedule Name

OS:Schedule:Day,
  {36a9cd14-3462-492e-8124-2ae47132a2ae}, !- Handle
  Always_Off_Default,                     !- Name
  ,                                       !- Schedule Type Limits Name
  ,                                       !- Interpolate to Timestep
  24,                                     !- Hour 1
  0,                                      !- Minute 1
  0;                                      !- Value Until Time 1

OS:Schedule:Day,
  {5f8fec64-c573-4309-8ae1-041d610578a4}, !- Handle
  Schedule Day 4,                         !- Name
  ,                                       !- Schedule Type Limits Name
  ,                                       !- Interpolate to Timestep
  24,                                     !- Hour 1
  0,                                      !- Minute 1
  0;                                      !- Value Until Time 1

OS:Schedule:Day,
  {670160b1-1a69-4c97-96b0-5c7316ce784d}, !- Handle
  Always_Off_Winter_Design_Day,           !- Name
  ,                                       !- Schedule Type Limits Name
  ,                                       !- Interpolate to Timestep
  24,                                     !- Hour 1
  0,                                      !- Minute 1
  0;                                      !- Value Until Time 1

OS:Schedule:Day,
  {95610099-96ee-4fc9-8790-6037b9eaf737}, !- Handle
  Schedule Day 5,                         !- Name
  ,                                       !- Schedule Type Limits Name
  ,                                       !- Interpolate to Timestep
  24,                                     !- Hour 1
  0,                                      !- Minute 1
  0;                                      !- Value Until Time 1

OS:Schedule:Day,
  {1febfec4-f724-42c2-9048-93be099b766b}, !- Handle
  Always_Off_Summer_Design_Day,           !- Name
  ,                                       !- Schedule Type Limits Name
  ,                                       !- Interpolate to Timestep
  24,                                     !- Hour 1
  0,                                      !- Minute 1
  0;                                      !- Value Until Time 1

OS:Schedule:Ruleset,
  {d88168b7-ce92-4de9-ba53-69e534909f62}, !- Handle
  Deck_Temperature,                       !- Name
  {0a3f8f3a-5191-4530-81f8-cef64b6ba79f}, !- Schedule Type Limits Name
  {0a9d0fe1-5dbb-4f4a-ba1b-e8621c5f3111}, !- Default Day Schedule Name
  {f0cb1ad3-a501-4d93-acb2-2794118294c1}, !- Summer Design Day Schedule Name
  {319f44b9-cf52-4f8e-aac1-9a479bf33cc3}; !- Winter Design Day Schedule Name

OS:Schedule:Day,
  {0a9d0fe1-5dbb-4f4a-ba1b-e8621c5f3111}, !- Handle
  Deck_Temperature_Default,               !- Name
  {0a3f8f3a-5191-4530-81f8-cef64b6ba79f}, !- Schedule Type Limits Name
  ,                                       !- Interpolate to Timestep
  24,                                     !- Hour 1
  0,                                      !- Minute 1
  12.8;                                   !- Value Until Time 1

OS:Schedule:Day,
  {b60debbc-8c0b-49bc-ae59-68bd6a5fdcf2}, !- Handle
  Schedule Day 6,                         !- Name
  ,                                       !- Schedule Type Limits Name
  ,                                       !- Interpolate to Timestep
  24,                                     !- Hour 1
  0,                                      !- Minute 1
  0;                                      !- Value Until Time 1

OS:Schedule:Day,
  {319f44b9-cf52-4f8e-aac1-9a479bf33cc3}, !- Handle
  Deck_Temperature_Winter_Design_Day,     !- Name
  {0a3f8f3a-5191-4530-81f8-cef64b6ba79f}, !- Schedule Type Limits Name
  ,                                       !- Interpolate to Timestep
  24,                                     !- Hour 1
  0,                                      !- Minute 1
  12.8;                                   !- Value Until Time 1

OS:Schedule:Day,
  {772f34f7-2185-414a-8e48-efa295ed1d7e}, !- Handle
  Schedule Day 7,                         !- Name
  ,                                       !- Schedule Type Limits Name
  ,                                       !- Interpolate to Timestep
  24,                                     !- Hour 1
  0,                                      !- Minute 1
  0;                                      !- Value Until Time 1

OS:Schedule:Day,
  {f0cb1ad3-a501-4d93-acb2-2794118294c1}, !- Handle
  Deck_Temperature_Summer_Design_Day,     !- Name
  {0a3f8f3a-5191-4530-81f8-cef64b6ba79f}, !- Schedule Type Limits Name
  ,                                       !- Interpolate to Timestep
  24,                                     !- Hour 1
  0,                                      !- Minute 1
  12.8;                                   !- Value Until Time 1

OS:Construction,
  {d22f7cb4-53d5-4fa4-bbb9-9a4fe4fd86bb}, !- Handle
  INT-FLOOR-TOPSIDE,                      !- Name
  ,                                       !- Surface Rendering Name
  {d11c3764-42db-41b8-a0ac-3d3bedeeb02a}, !- Layer 1
  {a9fbc9d9-a5cb-422b-a179-186ea0f2e054}, !- Layer 2
  {e3b9139f-e790-4df2-80c1-196d22ae25e2}; !- Layer 3

OS:Material,
  {d11c3764-42db-41b8-a0ac-3d3bedeeb02a}, !- Handle
  1/2IN Gypsum,                           !- Name
  Smooth,                                 !- Roughness
  0.0127,                                 !- Thickness {m}
  0.1600,                                 !- Conductivity {W/m-K}
  784.9000,                               !- Density {kg/m3}
  830.0000,                               !- Specific Heat {J/kg-K}
  0.9000,                                 !- Thermal Absorptance
  0.9200,                                 !- Solar Absorptance
  0.9200;                                 !- Visible Absorptance

OS:Material,
  {a9fbc9d9-a5cb-422b-a179-186ea0f2e054}, !- Handle
  4IN CONCRETE HW,                        !- Name
  Rough,                                  !- Roughness
  0.1016,                                 !- Thickness {m}
  1.3110,                                 !- Conductivity {W/m-K}
  2240.0000,                              !- Density {kg/m3}
  836.8000,                               !- Specific Heat {J/kg-K}
  0.9000,                                 !- Thermal Absorptance
  0.7000,                                 !- Solar Absorptance
  0.7000;                                 !- Visible Absorptance

OS:Material:NoMass,
  {e3b9139f-e790-4df2-80c1-196d22ae25e2}, !- Handle
  CP02 CARPET PAD,                        !- Name
  VeryRough,                              !- Roughness
  0.2165,                                 !- Thermal Resistance {m2-K/W}
  0.9000,                                 !- Thermal Absorptance
  0.7000,                                 !- Solar Absorptance
  0.8000;                                 !- Visible Absorptance

OS:StandardsInformation:Construction,
  {3de784f6-4da8-44fa-bb50-0ceb8308625e}, !- Handle
  {d22f7cb4-53d5-4fa4-bbb9-9a4fe4fd86bb}, ! Construction Name
  ,                                       ! Intended Surface Type
  Mass,                                   ! Construction Type
  0,                                      ! Perturbable Layer
  Insulation,                             ! Perturbable Layer Type
  ;                                       ! Other Perturbable Layer Type

OS:Construction,
  {06fddd21-2a13-4626-97c7-c1b2d6bd6a1c}, !- Handle
  INT-FLOOR-UNDERSIDE,                    !- Name
  ,                                       !- Surface Rendering Name
  {e3b9139f-e790-4df2-80c1-196d22ae25e2}, !- Layer 1
  {a9fbc9d9-a5cb-422b-a179-186ea0f2e054}, !- Layer 2
  {d11c3764-42db-41b8-a0ac-3d3bedeeb02a}; !- Layer 3

OS:StandardsInformation:Construction,
  {31e163e5-9aaf-4b7a-a4d0-4d541f754d42}, !- Handle
  {06fddd21-2a13-4626-97c7-c1b2d6bd6a1c}, ! Construction Name
  ,                                       ! Intended Surface Type
  Mass,                                   ! Construction Type
  1,                                      ! Perturbable Layer
  Insulation,                             ! Perturbable Layer Type
  ;                                       ! Other Perturbable Layer Type

OS:Construction,
  {bf1aea3e-302f-459a-9792-d18e6c189b8b}, !- Handle
  Standard_Int-Wall,                      !- Name
  ,                                       !- Surface Rendering Name
  {d11c3764-42db-41b8-a0ac-3d3bedeeb02a}, !- Layer 1
  {d11c3764-42db-41b8-a0ac-3d3bedeeb02a}; !- Layer 2

OS:StandardsInformation:Construction,
  {0e5f2b0e-57e6-46ee-afd8-8d2175bed4b3}, !- Handle
  {bf1aea3e-302f-459a-9792-d18e6c189b8b}, ! Construction Name
  ,                                       ! Intended Surface Type
  Mass,                                   ! Construction Type
  0,                                      ! Perturbable Layer
  Insulation,                             ! Perturbable Layer Type
  ;                                       ! Other Perturbable Layer Type

OS:DefaultSurfaceConstructions,
  {e09cb012-d172-470a-ac14-b1125c0a783a}, !- Handle
  Default Surface Constructions 1,        !- Name
  {d22f7cb4-53d5-4fa4-bbb9-9a4fe4fd86bb}, !- Floor Construction Name
  {bf1aea3e-302f-459a-9792-d18e6c189b8b}, !- Wall Construction Name
  {06fddd21-2a13-4626-97c7-c1b2d6bd6a1c}; !- Roof Ceiling Construction Name

OS:DefaultConstructionSet,
  {2ad489bf-4768-4f9d-b4ce-ccd528d35365}, !- Handle
  Default Construction Set 1,             !- Name
  ,                                       !- Default Exterior Surface Constructions Name
  {e09cb012-d172-470a-ac14-b1125c0a783a}, !- Default Interior Surface Constructions Name
  ,                                       !- Default Ground Contact Surface Constructions Name
  ,                                       !- Default Exterior SubSurface Constructions Name
  ,                                       !- Default Interior SubSurface Constructions Name
  ,                                       !- Interior Partition Construction Name
  ,                                       !- Space Shading Construction Name
  ,                                       !- Building Shading Construction Name
  ;                                       !- Site Shading Construction Name

OS:Building,
  {2db37ef6-9a52-49a0-a748-3216db72343e}, !- Handle
  Building 1,                             !- Name
  ,                                       !- Building Type
  ,                                       !- North Axis {deg}
  ,                                       !- Nominal Floor to Floor Height {m}
  ,                                       !- Space Type Name
  {2ad489bf-4768-4f9d-b4ce-ccd528d35365}, !- Default Construction Set Name
  ;                                       !- Default Schedule Set Name

! Wall from DOE reference building new warehouse
OS:Construction,
  {d853206b-c774-4bd3-a536-5c83a165150c}, !- Handle
  Metal_Building_Wall,                    !- Name
  ,                                       !- Surface Rendering Name
  {abf8f1a3-5b17-406a-bfbb-cadec00841fb}, !- Layer 1
  {7d521922-8893-4318-b01d-f04646ebf236}, !- Layer 2
  {d11c3764-42db-41b8-a0ac-3d3bedeeb02a}; !- Layer 3

OS:Material,
  {abf8f1a3-5b17-406a-bfbb-cadec00841fb}, !- Handle
  Metal Siding,                           !- Name
  Smooth,                                 !- Roughness
  0.0015,                                 !- Thickness {m}
  44.9600,                                !- Conductivity {W/m-K}
  7688.8600,                              !- Density {kg/m3}
  410.0000,                               !- Specific Heat {J/kg-K}
  0.9000,                                 !- Thermal Absorptance
  0.2000,                                 !- Solar Absorptance
  0.2000;                                 !- Visible Absorptance

OS:Material,
  {7d521922-8893-4318-b01d-f04646ebf236}, !- Handle
  Metal Building Wall Insulation,         !- Name
  MediumRough,                            !- Roughness
  0.0293321779154676,                     !- Thickness {m}
  0.049,                                  !- Conductivity {W/m-K}
  265.0000,                               !- Density {kg/m3}
  836.8000,                               !- Specific Heat {J/kg-K}
  0.9000,                                 !- Thermal Absorptance
  0.7000,                                 !- Solar Absorptance
  0.7000;                                 !- Visible Absorptance

OS:StandardsInformation:Construction,
  {29ed0962-7141-4b30-b0c9-9db930e3d7ed}, !- Handle
  {d853206b-c774-4bd3-a536-5c83a165150c}, ! Construction Name
  ,                                       ! Intended Surface Type
  Metal-Building,                         ! Construction Type
  1,                                      ! Perturbable Layer
  Insulation,                             ! Perturbable Layer Type
  ;                                       ! Other Perturbable Layer Type

! Roof
OS:Construction,
  {7155bee3-ac4e-4fb7-a68f-af46cc37fde3}, !- Handle
  IEAD_Metal_Deck,                        !- Name
  ,                                       !- Surface Rendering Name
  {3b0affa3-7de2-4a55-abc1-b7e0a506ed9e}, !- Layer 1
  {26b43ae0-512b-474e-b9bf-0b3e136c48a4}, !- Layer 2
  {9c9e4003-1287-40c4-b618-b08c02b99b81}; !- Layer 3

OS:Material,
  {3b0affa3-7de2-4a55-abc1-b7e0a506ed9e}, !- Handle
  Roof Membrane,                          !- Name
  VeryRough,                              !- Roughness
  0.0095,                                 !- Thickness {m}
  0.1600,                                 !- Conductivity {W/m-K}
  1121.2900,                              !- Density {kg/m3}
  1460.0000,                              !- Specific Heat {J/kg-K}
  0.9000,                                 !- Thermal Absorptance
  0.7000,                                 !- Solar Absorptance
  0.7000;                                 !- Visible Absorptance

OS:Material,
  {26b43ae0-512b-474e-b9bf-0b3e136c48a4}, !- Handle
  IEAD Roof Insulation,                   !- Name
  MediumRough,                            !- Roughness
  0.105042781594285,                      !- Thickness {m}
  0.049,                                  !- Conductivity {W/m-K}
  265.0000,                               !- Density {kg/m3}
  836.8000,                               !- Specific Heat {J/kg-K}
  0.9000,                                 !- Thermal Absorptance
  0.7000,                                 !- Solar Absorptance
  0.7000;                                 !- Visible Absorptance

OS:Material,
  {9c9e4003-1287-40c4-b618-b08c02b99b81}, !- Handle
  Metal Decking,                          !- Name
  MediumSmooth,                           !- Roughness
  0.0015,                                 !- Thickness {m}
  45.0060,                                !- Conductivity {W/m-K}
  7680.0000,                              !- Density {kg/m3}
  418.4000,                               !- Specific Heat {J/kg-K}
  0.9000,                                 !- Thermal Absorptance
  0.7000,                                 !- Solar Absorptance
  0.3000;                                 !- Visible Absorptance

OS:StandardsInformation:Construction,
  {3119f3f0-2d2c-47a7-b94a-cbc0f8119bf4}, !- Handle
  {7155bee3-ac4e-4fb7-a68f-af46cc37fde3}, ! Construction Name
  ,                                       ! Intended Surface Type
  IEAD,                                   ! Construction Type
  1,                                      ! Perturbable Layer
  Insulation,                             ! Perturbable Layer Type
  ;                                       ! Other Perturbable Layer Type

OS:Construction,
  {522cbf6c-28d9-4a52-bdca-bcffe1b14612}, !- Handle
  Insul_slab,                             !- Name
  ,                                       !- Surface Rendering Name
  {c7a21b14-e696-4d51-9548-20171dbb8ca2}, !- Layer 1
  {89652308-caff-4711-996d-22fddd57f2ee}; !- Layer 2

OS:Material,
  {c7a21b14-e696-4d51-9548-20171dbb8ca2}, !- Handle
  Floor Insulation,                       !- Name
  MediumRough,                            !- Roughness
  0.0795,                                 !- Thickness {m}
  0.0450,                                 !- Conductivity {W/m-K}
  265.0000,                               !- Density {kg/m3}
  836.8000,                               !- Specific Heat {J/kg-K}
  0.9000,                                 !- Thermal Absorptance
  0.7000,                                 !- Solar Absorptance
  0.7000;                                 !- Visible Absorptance

OS:Material,
  {89652308-caff-4711-996d-22fddd57f2ee}, !- Handle
  MAT-CC05 8 HW CONCRETE,                 !- Name
  Rough,                                  !- Roughness
  0.2032,                                 !- Thickness {m}
  1.3110,                                 !- Conductivity {W/m-K}
  2240.0000,                              !- Density {kg/m3}
  836.8000,                               !- Specific Heat {J/kg-K}
  0.9000,                                 !- Thermal Absorptance
  0.7000,                                 !- Solar Absorptance
  0.7000;                                 !- Visible Absorptance

OS:StandardsInformation:Construction,
  {8c56e6e3-ce20-43ca-9fbd-35b990fd066a}, !- Handle
  {522cbf6c-28d9-4a52-bdca-bcffe1b14612}, ! Construction Name
  ,                                       ! Intended Surface Type
  Exterior Floor:Slab,                    ! Construction Type
  0,                                      ! Perturbable Layer
  Insulation,                             ! Perturbable Layer Type
  ;                                       ! Other Perturbable Layer Type

OS:WindowMaterial:SimpleGlazingSystem,
  {8cb03e88-b020-417d-aaa3-5d4272101798}, !- Handle
  Glazing Layer,                          !- Name
  4.14513209830427,                       !- U-Factor {W/m2-K}
  0.5133,                                 !- Solar Heat Gain Coefficient
  0.7;                                    !- Visible Transmittance

OS:Construction,
  {03cac117-82b4-4426-9345-a456f76112c0}, !- Handle
  fenestration___,                        !- Name
  ,                                       !- Surface Rendering Name
  {8cb03e88-b020-417d-aaa3-5d4272101798}; !- Layer 1

OS:WindowMaterial:SimpleGlazingSystem,
  {6ef303f6-0506-4b2c-8dd9-caba972e8880}, !- Handle
  Skylight - Glazing Layer,               !- Name
  7,                                      !- U-Factor {W/m2-K}
  0.9;                                    !- Solar Heat Gain Coefficient

OS:Construction,
  {c6b80830-56ed-4950-b8bf-a8bd96bacfd4}, !- Handle
  skylight_7_0.9_1,                       !- Name
  ,                                       !- Surface Rendering Name
  {6ef303f6-0506-4b2c-8dd9-caba972e8880}; !- Layer 1

OS:AirLoopHVAC,
  {54e6a595-5390-482e-a9cf-ecc25aefce84}, !- Handle
  AirLoop 99,                             !- Name
  ,                                       !- Controller List Name
  {ddc2f0c1-8ab2-4f6b-b72b-94fe68582b4f}, !- Availability Manager List Name
  AutoSize,                               !- Design Supply Air Flow Rate {m3/s}
  ,                                       !- Branch List Name
  ,                                       !- Connector List Name
  {f02bde50-f112-4f96-bb36-b0bb5b20fc07}, !- Supply Side Inlet Node Name
  {94aae1a7-bb48-43a2-9739-7bc21db7136a}, !- Demand Side Outlet Node Name
  {8845668b-0a15-45df-afba-cd53ef79400d}, !- Demand Side Inlet Node Names
  {07b78340-5af2-4c07-b5f0-d4e32a656dc0}; !- Supply Side Outlet Node Names

OS:AvailabilityManagerAssignmentList,
  {ddc2f0c1-8ab2-4f6b-b72b-94fe68582b4f}, !- Handle
  Availability Manager Assignment List 1, !- Name
  {b77ba00b-8f89-43a9-ab2a-26e135c73aa2}, !- Availability Manager Name 1
  {4dc68682-d1a2-4306-950f-be3e90a98416}; !- Availability Manager Name 2

OS:AvailabilityManager:Scheduled,
  {b77ba00b-8f89-43a9-ab2a-26e135c73aa2}, !- Handle
  Availability Manager Scheduled 1,       !- Name
  {61b015df-0eb1-4894-9e3f-c816ef78f60d}; !- Schedule Name

OS:Schedule:Constant,
  {61b015df-0eb1-4894-9e3f-c816ef78f60d}, !- Handle
  Always On Discrete,                     !- Name
  {8d1aad7a-22da-4b16-a813-4f49de25e90b}, !- Schedule Type Limits Name
  1;                                      !- Value

OS:ScheduleTypeLimits,
  {8d1aad7a-22da-4b16-a813-4f49de25e90b}, !- Handle
  Schedule Type Limits 1,                 !- Name
  0,                                      !- Lower Limit Value {BasedOnField A4}
  1,                                      !- Upper Limit Value {BasedOnField A4}
  Discrete,                               !- Numeric Type
  Availability;                           !- Unit Type

OS:AvailabilityManager:NightCycle,
  {4dc68682-d1a2-4306-950f-be3e90a98416}, !- Handle
  Availability Manager Night Cycle 1,     !- Name
  ,                                       !- Applicability Schedule
  ,                                       !- Fan Schedule
  ,                                       !- Control Type
  ,                                       !- Thermostat Tolerance {deltaC}
  ;                                       !- Cycling Run Time {s}

OS:Node,
  {eabf887d-c5f6-4e7e-bc82-d66ed118660f}, !- Handle
  Node 1,                                 !- Name
  {f02bde50-f112-4f96-bb36-b0bb5b20fc07}, !- Inlet Port
  {d1163df1-315a-4221-9000-fef316e37442}; !- Outlet Port

OS:Node,
  {59d20c29-ce7a-4e33-858d-9ec7bf94a29b}, !- Handle
  Node 2,                                 !- Name
  {49646855-5583-4161-b2d6-e7b7bcda31dd}, !- Inlet Port
  {07b78340-5af2-4c07-b5f0-d4e32a656dc0}; !- Outlet Port

OS:Connection,
  {f02bde50-f112-4f96-bb36-b0bb5b20fc07}, !- Handle
  Connection 1,                           !- Name
  {54e6a595-5390-482e-a9cf-ecc25aefce84}, !- Source Object
  7,                                      !- Outlet Port
  {eabf887d-c5f6-4e7e-bc82-d66ed118660f}, !- Target Object
  2;                                      !- Inlet Port

OS:Connection,
  {07b78340-5af2-4c07-b5f0-d4e32a656dc0}, !- Handle
  Connection 3,                           !- Name
  {59d20c29-ce7a-4e33-858d-9ec7bf94a29b}, !- Source Object
  3,                                      !- Outlet Port
  {54e6a595-5390-482e-a9cf-ecc25aefce84}, !- Target Object
  10;                                     !- Inlet Port

OS:Node,
  {43915641-f9c6-460f-91cf-faf755954cd4}, !- Handle
  Node 3,                                 !- Name
  {8845668b-0a15-45df-afba-cd53ef79400d}, !- Inlet Port
  {b4275963-7cfc-406f-8463-7c7c2bffb297}; !- Outlet Port

OS:Node,
  {9ecc6bde-dde6-43b3-a8fb-0bbf386fff57}, !- Handle
  Node 4,                                 !- Name
  {f93344f0-19fe-499a-9299-b34713313192}, !- Inlet Port
  {94aae1a7-bb48-43a2-9739-7bc21db7136a}; !- Outlet Port

OS:Node,
  {742b2037-2b28-4252-9b45-206e11bf9113}, !- Handle
  Node 5,                                 !- Name
  {1f68f3dc-9c4e-477f-97dd-e2b752214103}, !- Inlet Port
  {1600fa48-f804-40b5-8f66-a94fd0c7828b}; !- Outlet Port

OS:Connection,
  {8845668b-0a15-45df-afba-cd53ef79400d}, !- Handle
  Connection 4,                           !- Name
  {54e6a595-5390-482e-a9cf-ecc25aefce84}, !- Source Object
  9,                                      !- Outlet Port
  {43915641-f9c6-460f-91cf-faf755954cd4}, !- Target Object
  2;                                      !- Inlet Port

OS:Connection,
  {94aae1a7-bb48-43a2-9739-7bc21db7136a}, !- Handle
  Connection 5,                           !- Name
  {9ecc6bde-dde6-43b3-a8fb-0bbf386fff57}, !- Source Object
  3,                                      !- Outlet Port
  {54e6a595-5390-482e-a9cf-ecc25aefce84}, !- Target Object
  8;                                      !- Inlet Port

OS:AirLoopHVAC:ZoneSplitter,
  {4636313a-ea65-4004-8d6a-2fcdbece3366}, !- Handle
  Air Loop HVAC Zone Splitter 1,          !- Name
  {b4275963-7cfc-406f-8463-7c7c2bffb297}, !- Inlet Node Name
  {26a41f6e-ebcf-4f72-83e6-4085d4e7f65d}; !- Outlet Node Name 1

OS:AirLoopHVAC:ZoneMixer,
  {c30be6b8-8ce4-425e-b96f-951e47478194}, !- Handle
  Air Loop HVAC Zone Mixer 1,             !- Name
  {f93344f0-19fe-499a-9299-b34713313192}, !- Outlet Node Name
  {1600fa48-f804-40b5-8f66-a94fd0c7828b}; !- Inlet Node Name 1

OS:Connection,
  {b4275963-7cfc-406f-8463-7c7c2bffb297}, !- Handle
  Connection 6,                           !- Name
  {43915641-f9c6-460f-91cf-faf755954cd4}, !- Source Object
  3,                                      !- Outlet Port
  {4636313a-ea65-4004-8d6a-2fcdbece3366}, !- Target Object
  2;                                      !- Inlet Port

OS:Connection,
  {1600fa48-f804-40b5-8f66-a94fd0c7828b}, !- Handle
  Connection 8,                           !- Name
  {742b2037-2b28-4252-9b45-206e11bf9113}, !- Source Object
  3,                                      !- Outlet Port
  {c30be6b8-8ce4-425e-b96f-951e47478194}, !- Target Object
  3;                                      !- Inlet Port

OS:Connection,
  {f93344f0-19fe-499a-9299-b34713313192}, !- Handle
  Connection 9,                           !- Name
  {c30be6b8-8ce4-425e-b96f-951e47478194}, !- Source Object
  2,                                      !- Outlet Port
  {9ecc6bde-dde6-43b3-a8fb-0bbf386fff57}, !- Target Object
  2;                                      !- Inlet Port

OS:Sizing:System,
  {4abbdfeb-fe8c-415a-86ab-61e336578d2d}, !- Handle
  {54e6a595-5390-482e-a9cf-ecc25aefce84}, !- AirLoop Name
  Sensible,                               !- Type of Load to Size On
  Autosize,                               !- Design Outdoor Air Flow Rate {m3/s}
  0.3,                                    !- Minimum System Air Flow Ratio
  7,                                      !- Preheat Design Temperature {C}
  0.008,                                  !- Preheat Design Humidity Ratio {kg-H2O/kg-Air}
  12.8,                                   !- Precool Design Temperature {C}
  0.008,                                  !- Precool Design Humidity Ratio {kg-H2O/kg-Air}
  12.8,                                   !- Central Cooling Design Supply Air Temperature {C}
  16.7,                                   !- Central Heating Design Supply Air Temperature {C}
  NonCoincident,                          !- Sizing Option
  Yes,                                    !- 100% Outdoor Air in Cooling
  Yes,                                    !- 100% Outdoor Air in Heating
  0.0085,                                 !- Central Cooling Design Supply Air Humidity Ratio {kg-H2O/kg-Air}
  0.008,                                  !- Central Heating Design Supply Air Humidity Ratio {kg-H2O/kg-Air}
  DesignDay,                              !- Cooling Design Air Flow Method
  0,                                      !- Cooling Design Air Flow Rate {m3/s}
  DesignDay,                              !- Heating Design Air Flow Method
  0,                                      !- Heating Design Air Flow Rate {m3/s}
  ZoneSum;                                !- System Outdoor Air Method

OS:Controller:OutdoorAir,
  {aab926af-7cfa-4e04-8b5b-0640b6b1a91a}, !- Handle
  Controller Outdoor Air 1,               !- Name
  ,                                       !- Relief Air Outlet Node Name