
OS:Version,
  {4310d4b9-83d5-47e7-8ea8-d1beeeb6afa8}, !- Handle
  1.0.6;                                  !- Version Identifier

OS:Schedule:Ruleset,
  {0cd288dd-9b84-4930-8acf-7c9e26469b80}, !- Handle
  Always_On,                              !- Name
  ,                                       !- Schedule Type Limits Name
  {10d8f7e9-a4e9-4da7-912b-df2c947e8b9d}, !- Default Day Schedule Name
  {229fabfb-272d-4a21-8929-c959a4f534d4}, !- Summer Design Day Schedule Name
  {525e9b37-2bb9-4814-ade0-82e9ef4917e7}; !- Winter Design Day Schedule Name

OS:Schedule:Day,
  {10d8f7e9-a4e9-4da7-912b-df2c947e8b9d}, !- Handle
  Always_On_Default,                      !- Name
  ,                                       !- Schedule Type Limits Name
  ,                                       !- Interpolate to Timestep
  24,                                     !- Hour 1
  0,                                      !- Minute 1
  1;                                      !- Value Until Time 1

OS:Schedule:Day,
  {04f49da0-3719-49d5-92ee-cd6c4cf8c5bc}, !- Handle
  Schedule Day 2,                         !- Name
  ,                                       !- Schedule Type Limits Name
  ,                                       !- Interpolate to Timestep
  24,                                     !- Hour 1
  0,                                      !- Minute 1
  0;                                      !- Value Until Time 1

OS:Schedule:Day,
  {525e9b37-2bb9-4814-ade0-82e9ef4917e7}, !- Handle
  Always_On_Winter_Design_Day,            !- Name
  ,                                       !- Schedule Type Limits Name
  ,                                       !- Interpolate to Timestep
  24,                                     !- Hour 1
  0,                                      !- Minute 1
  1;                                      !- Value Until Time 1

OS:Schedule:Day,
  {b9eef509-3e34-4e2d-8e56-ed1603efc0de}, !- Handle
  Schedule Day 3,                         !- Name
  ,                                       !- Schedule Type Limits Name
  ,                                       !- Interpolate to Timestep
  24,                                     !- Hour 1
  0,                                      !- Minute 1
  0;                                      !- Value Until Time 1

OS:Schedule:Day,
  {229fabfb-272d-4a21-8929-c959a4f534d4}, !- Handle
  Always_On_Summer_Design_Day,            !- Name
  ,                                       !- Schedule Type Limits Name
  ,                                       !- Interpolate to Timestep
  24,                                     !- Hour 1
  0,                                      !- Minute 1
  1;                                      !- Value Until Time 1

OS:Schedule:Ruleset,
  {8527d2cd-ca05-424b-8545-c1fc0ff7551b}, !- Handle
  Always_Off,                             !- Name
  ,                                       !- Schedule Type Limits Name
  {19e02a24-84e4-45f2-9717-924724878df2}, !- Default Day Schedule Name
  {0b37dcbb-fd6a-40bc-a90a-5f3412b6f4b8}, !- Summer Design Day Schedule Name
  {cffe477b-1693-4b86-b171-1fd90803f058}; !- Winter Design Day Schedule Name

OS:Schedule:Day,
  {19e02a24-84e4-45f2-9717-924724878df2}, !- Handle
  Always_Off_Default,                     !- Name
  ,                                       !- Schedule Type Limits Name
  ,                                       !- Interpolate to Timestep
  24,                                     !- Hour 1
  0,                                      !- Minute 1
  0;                                      !- Value Until Time 1

OS:Schedule:Day,
  {f5d8e50a-4920-43d4-842a-1a3aa6f4e113}, !- Handle
  Schedule Day 4,                         !- Name
  ,                                       !- Schedule Type Limits Name
  ,                                       !- Interpolate to Timestep
  24,                                     !- Hour 1
  0,                                      !- Minute 1
  0;                                      !- Value Until Time 1

OS:Schedule:Day,
  {cffe477b-1693-4b86-b171-1fd90803f058}, !- Handle
  Always_Off_Winter_Design_Day,           !- Name
  ,                                       !- Schedule Type Limits Name
  ,                                       !- Interpolate to Timestep
  24,                                     !- Hour 1
  0,                                      !- Minute 1
  0;                                      !- Value Until Time 1

OS:Schedule:Day,
  {ab4d91c1-eda9-49b1-96d3-04d78c4d7a31}, !- Handle
  Schedule Day 5,                         !- Name
  ,                                       !- Schedule Type Limits Name
  ,                                       !- Interpolate to Timestep
  24,                                     !- Hour 1
  0,                                      !- Minute 1
  0;                                      !- Value Until Time 1

OS:Schedule:Day,
  {0b37dcbb-fd6a-40bc-a90a-5f3412b6f4b8}, !- Handle
  Always_Off_Summer_Design_Day,           !- Name
  ,                                       !- Schedule Type Limits Name
  ,                                       !- Interpolate to Timestep
  24,                                     !- Hour 1
  0,                                      !- Minute 1
  0;                                      !- Value Until Time 1

OS:Schedule:Ruleset,
  {0f26c0eb-1eda-4503-ba2f-153e90e1887b}, !- Handle
  Deck_Temperature,                       !- Name
  ,                                       !- Schedule Type Limits Name
  {04f8dafd-611f-4503-8735-103005012073}, !- Default Day Schedule Name
  {ed869db6-be5f-4a0b-b642-2ca3d9c67ca8}, !- Summer Design Day Schedule Name
  {3a907e46-534c-4154-ae99-d0ab63e78e3f}; !- Winter Design Day Schedule Name

OS:Schedule:Day,
  {04f8dafd-611f-4503-8735-103005012073}, !- Handle
  Deck_Temperature_Default,               !- Name
  ,                                       !- Schedule Type Limits Name
  ,                                       !- Interpolate to Timestep
  24,                                     !- Hour 1
  0,                                      !- Minute 1
  12.8;                                   !- Value Until Time 1

OS:Schedule:Day,
  {b9a231f1-9bcc-4030-9047-31b72ccd9fd5}, !- Handle
  Schedule Day 6,                         !- Name
  ,                                       !- Schedule Type Limits Name
  ,                                       !- Interpolate to Timestep
  24,                                     !- Hour 1
  0,                                      !- Minute 1
  0;                                      !- Value Until Time 1

OS:Schedule:Day,
  {3a907e46-534c-4154-ae99-d0ab63e78e3f}, !- Handle
  Deck_Temperature_Winter_Design_Day,     !- Name
  ,                                       !- Schedule Type Limits Name
  ,                                       !- Interpolate to Timestep
  24,                                     !- Hour 1
  0,                                      !- Minute 1
  12.8;                                   !- Value Until Time 1

OS:Schedule:Day,
  {dcc81cad-e24e-4df8-8dbe-e8d454be161c}, !- Handle
  Schedule Day 7,                         !- Name
  ,                                       !- Schedule Type Limits Name
  ,                                       !- Interpolate to Timestep
  24,                                     !- Hour 1
  0,                                      !- Minute 1
  0;                                      !- Value Until Time 1

OS:Schedule:Day,
  {ed869db6-be5f-4a0b-b642-2ca3d9c67ca8}, !- Handle
  Deck_Temperature_Summer_Design_Day,     !- Name
  ,                                       !- Schedule Type Limits Name
  ,                                       !- Interpolate to Timestep
  24,                                     !- Hour 1
  0,                                      !- Minute 1
  12.8;                                   !- Value Until Time 1

OS:Construction,
  {7d29514e-8a33-40eb-8e4e-07a8c28c53a0}, !- Handle
  INT-FLOOR-TOPSIDE,                      !- Name
  ,                                       !- Surface Rendering Name
  {5908c243-eeeb-45c3-9b71-fdeddb3f72cd}, !- Layer 1
  {96121fab-e382-4406-9151-3e011a3a0279}, !- Layer 2
  {a641e116-c9b2-4bfd-8ec5-57a1688b3fd7}; !- Layer 3

OS:Material,
  {5908c243-eeeb-45c3-9b71-fdeddb3f72cd}, !- Handle
  1/2IN Gypsum,                           !- Name
  Smooth,                                 !- Roughness
  0.0127,                                 !- Thickness {m}
  0.1600,                                 !- Conductivity {W/m-K}
  784.9000,                               !- Density {kg/m3}
  830.0000,                               !- Specific Heat {J/kg-K}
  0.9000,                                 !- Thermal Absorptance
  0.9200,                                 !- Solar Absorptance
  0.9200;                                 !- Visible Absorptance

OS:Material,
  {96121fab-e382-4406-9151-3e011a3a0279}, !- Handle
  4IN CONCRETE HW,                        !- Name
  Rough,                                  !- Roughness
  0.1016,                                 !- Thickness {m}
  1.3110,                                 !- Conductivity {W/m-K}
  2240.0000,                              !- Density {kg/m3}
  836.8000,                               !- Specific Heat {J/kg-K}
  0.9000,                                 !- Thermal Absorptance
  0.7000,                                 !- Solar Absorptance
  0.7000;                                 !- Visible Absorptance

OS:Material:NoMass,
  {a641e116-c9b2-4bfd-8ec5-57a1688b3fd7}, !- Handle
  CP02 CARPET PAD,                        !- Name
  VeryRough,                              !- Roughness
  0.2165,                                 !- Thermal Resistance {m2-K/W}
  0.9000,                                 !- Thermal Absorptance
  0.7000,                                 !- Solar Absorptance
  0.8000;                                 !- Visible Absorptance

OS:StandardsInformation:Construction,
  {484bccea-3c78-43b2-8be2-41b9244bb726}, !- Handle
  {7d29514e-8a33-40eb-8e4e-07a8c28c53a0}, ! Construction Name
  ,                                       ! Intended Surface Type
  Mass,                                   ! Construction Type
  0,                                      ! Perturbable Layer
  Insulation,                             ! Perturbable Layer Type
  ;                                       ! Other Perturbable Layer Type

OS:Construction,
  {2c41203a-a4f5-41f7-86b0-55d2d88ac630}, !- Handle
  INT-FLOOR-UNDERSIDE,                    !- Name
  ,                                       !- Surface Rendering Name
  {a641e116-c9b2-4bfd-8ec5-57a1688b3fd7}, !- Layer 1
  {96121fab-e382-4406-9151-3e011a3a0279}, !- Layer 2
  {5908c243-eeeb-45c3-9b71-fdeddb3f72cd}; !- Layer 3

OS:StandardsInformation:Construction,
  {63f0a685-a449-4fd1-9db3-bda609322d80}, !- Handle
  {2c41203a-a4f5-41f7-86b0-55d2d88ac630}, ! Construction Name
  ,                                       ! Intended Surface Type
  Mass,                                   ! Construction Type
  1,                                      ! Perturbable Layer
  Insulation,                             ! Perturbable Layer Type
  ;                                       ! Other Perturbable Layer Type

OS:Construction,
  {9ba5a108-9030-4d13-bd6c-584155dc4c0e}, !- Handle
  Standard_Int-Wall,                      !- Name
  ,                                       !- Surface Rendering Name
  {5908c243-eeeb-45c3-9b71-fdeddb3f72cd}, !- Layer 1
  {5908c243-eeeb-45c3-9b71-fdeddb3f72cd}; !- Layer 2

OS:StandardsInformation:Construction,
  {acfd187a-f21d-4eb4-8b07-b098b4120c3d}, !- Handle
  {9ba5a108-9030-4d13-bd6c-584155dc4c0e}, ! Construction Name
  ,                                       ! Intended Surface Type
  Mass,                                   ! Construction Type
  0,                                      ! Perturbable Layer
  Insulation,                             ! Perturbable Layer Type
  ;                                       ! Other Perturbable Layer Type

OS:DefaultSurfaceConstructions,
  {3da5414e-2be8-434d-829c-06f09f62cd02}, !- Handle
  Default Surface Constructions 1,        !- Name
  {7d29514e-8a33-40eb-8e4e-07a8c28c53a0}, !- Floor Construction Name
  {9ba5a108-9030-4d13-bd6c-584155dc4c0e}, !- Wall Construction Name
  {2c41203a-a4f5-41f7-86b0-55d2d88ac630}; !- Roof Ceiling Construction Name

OS:DefaultConstructionSet,
  {19cd362b-9b93-4cf0-a091-85b8a1c61419}, !- Handle
  Default Construction Set 1,             !- Name
  ,                                       !- Default Exterior Surface Constructions Name
  {3da5414e-2be8-434d-829c-06f09f62cd02}, !- Default Interior Surface Constructions Name
  ,                                       !- Default Ground Contact Surface Constructions Name
  ,                                       !- Default Exterior SubSurface Constructions Name
  ,                                       !- Default Interior SubSurface Constructions Name
  ,                                       !- Interior Partition Construction Name
  ,                                       !- Space Shading Construction Name
  ,                                       !- Building Shading Construction Name
  ;                                       !- Site Shading Construction Name

OS:Building,
  {4189ab9e-e558-4125-ab38-a9a4cced33f7}, !- Handle
  Building 1,                             !- Name
  ,                                       !- Building Type
  ,                                       !- North Axis {deg}
  ,                                       !- Nominal Floor to Floor Height {m}
  ,                                       !- Space Type Name
  {19cd362b-9b93-4cf0-a091-85b8a1c61419}, !- Default Construction Set Name
  ;                                       !- Default Schedule Set Name

! Exterior Walls: taken from DOE New Small Office Ref Bldg
OS:Construction,
  {292e0c77-845d-46ac-a7c7-70b42d6cb72b}, !- Handle
  Masonry_Wall,                           !- Name
  ,                                       !- Surface Rendering Name
  {29c5b823-1de8-4765-aabb-3f540bb8dd9a}, !- Layer 1
  {9be72aa2-655d-422d-ac36-5d51932c6779}, !- Layer 2
  {8cb9c289-62b7-48db-b48b-2f0adcf4e93e}, !- Layer 3
  {5908c243-eeeb-45c3-9b71-fdeddb3f72cd}; !- Layer 4

OS:Material,
  {29c5b823-1de8-4765-aabb-3f540bb8dd9a}, !- Handle
  1IN Stucco,                             !- Name
  Smooth,                                 !- Roughness
  0.0253,                                 !- Thickness {m}
  0.6918,                                 !- Conductivity {W/m-K}
  1858.0000,                              !- Density {kg/m3}
  837.0000,                               !- Specific Heat {J/kg-K}
  0.9000,                                 !- Thermal Absorptance
  0.9200,                                 !- Solar Absorptance
  0.9200;                                 !- Visible Absorptance

OS:Material,
  {9be72aa2-655d-422d-ac36-5d51932c6779}, !- Handle
  8IN CONCRETE HW,                        !- Name
  Rough,                                  !- Roughness
  0.2032,                                 !- Thickness {m}
  1.3110,                                 !- Conductivity {W/m-K}
  2240.0000,                              !- Density {kg/m3}
  836.8000,                               !- Specific Heat {J/kg-K}
  0.9000,                                 !- Thermal Absorptance
  0.7000,                                 !- Solar Absorptance
  0.7000;                                 !- Visible Absorptance

OS:Material,
  {8cb9c289-62b7-48db-b48b-2f0adcf4e93e}, !- Handle
  Masonry Wall Insulation,                !- Name
  MediumRough,                            !- Roughness
  0.0251787134011229,                     !- Thickness {m}
  0.049,                                  !- Conductivity {W/m-K}
  265.0000,                               !- Density {kg/m3}
  836.8000,                               !- Specific Heat {J/kg-K}
  0.9000,                                 !- Thermal Absorptance
  0.7000,                                 !- Solar Absorptance
  0.7000;                                 !- Visible Absorptance

OS:StandardsInformation:Construction,
  {750a9fe5-c7d4-46f5-8d1f-621c629a20c6}, !- Handle
  {292e0c77-845d-46ac-a7c7-70b42d6cb72b}, ! Construction Name
  ,                                       ! Intended Surface Type
  Mass,                                   ! Construction Type
  2,                                      ! Perturbable Layer
  Insulation,                             ! Perturbable Layer Type
  ;                                       ! Other Perturbable Layer Type

! Roof
OS:Construction,
  {d8a759ca-ed9f-40f0-8965-8fffd68a51d2}, !- Handle
  IEAD_Wood_Deck,                         !- Name
  ,                                       !- Surface Rendering Name
  {90128538-3925-4321-9e50-6c99accf3724}, !- Layer 1
  {faaee688-10f3-4ce1-8879-d1286dd351cc}, !- Layer 2
  {a5ad2ebc-2ade-4f85-8e85-1d3aef4d0055}; !- Layer 3

OS:Material,
  {90128538-3925-4321-9e50-6c99accf3724}, !- Handle
  Roof Membrane,                          !- Name
  VeryRough,                              !- Roughness
  0.0095,                                 !- Thickness {m}
  0.1600,                                 !- Conductivity {W/m-K}
  1121.2900,                              !- Density {kg/m3}
  1460.0000,                              !- Specific Heat {J/kg-K}
  0.9000,                                 !- Thermal Absorptance
  0.7000,                                 !- Solar Absorptance
  0.7000;                                 !- Visible Absorptance

OS:Material,
  {faaee688-10f3-4ce1-8879-d1286dd351cc}, !- Handle
  IEAD Roof Insulation,                   !- Name
  MediumRough,                            !- Roughness
  0.102532676283659,                      !- Thickness {m}
  0.049,                                  !- Conductivity {W/m-K}
  265.0000,                               !- Density {kg/m3}
  836.8000,                               !- Specific Heat {J/kg-K}
  0.9000,                                 !- Thermal Absorptance
  0.7000,                                 !- Solar Absorptance
  0.7000;                                 !- Visible Absorptance

OS:Material,
  {a5ad2ebc-2ade-4f85-8e85-1d3aef4d0055}, !- Handle
  1/2IN Gypsum 1,                         !- Name
  Smooth,                                 !- Roughness
  0.01271,                                !- Thickness {m}
  0.16,                                   !- Conductivity {W/m-K}
  784.9,                                  !- Density {kg/m3}
  830,                                    !- Specific Heat {J/kg-K}
  0.9,                                    !- Thermal Absorptance
  0.92,                                   !- Solar Absorptance
  0.92;                                   !- Visible Absorptance

OS:StandardsInformation:Construction,
  {5396d0de-f14b-42c9-af81-b490ed698946}, !- Handle
  {d8a759ca-ed9f-40f0-8965-8fffd68a51d2}, ! Construction Name
  ,                                       ! Intended Surface Type
  IEAD,                                   ! Construction Type
  1,                                      ! Perturbable Layer
  Insulation,                             ! Perturbable Layer Type
  ;                                       ! Other Perturbable Layer Type

OS:Construction,
  {cf557957-3056-41be-a52a-f7ef2858d273}, !- Handle
  Insul_slab,                             !- Name
  ,                                       !- Surface Rendering Name
  {fde65c47-e8d8-4c8a-80cf-72bef2e005e0}, !- Layer 1
  {ed048ff7-3224-4023-a467-ca5d4cc1138c}; !- Layer 2

OS:Material,
  {fde65c47-e8d8-4c8a-80cf-72bef2e005e0}, !- Handle
  Floor Insulation,                       !- Name
  MediumRough,                            !- Roughness
  0.0795,                                 !- Thickness {m}
  0.0450,                                 !- Conductivity {W/m-K}
  265.0000,                               !- Density {kg/m3}
  836.8000,                               !- Specific Heat {J/kg-K}
  0.9000,                                 !- Thermal Absorptance
  0.7000,                                 !- Solar Absorptance
  0.7000;                                 !- Visible Absorptance

OS:Material,
  {ed048ff7-3224-4023-a467-ca5d4cc1138c}, !- Handle
  MAT-CC05 8 HW CONCRETE,                 !- Name
  Rough,                                  !- Roughness
  0.2032,                                 !- Thickness {m}
  1.3110,                                 !- Conductivity {W/m-K}
  2240.0000,                              !- Density {kg/m3}
  836.8000,                               !- Specific Heat {J/kg-K}
  0.9000,                                 !- Thermal Absorptance
  0.7000,                                 !- Solar Absorptance
  0.7000;                                 !- Visible Absorptance

OS:StandardsInformation:Construction,
  {be8ef9f5-2d7f-464e-9f38-cda929f54dfc}, !- Handle
  {cf557957-3056-41be-a52a-f7ef2858d273}, ! Construction Name
  ,                                       ! Intended Surface Type
  Exterior Floor:Slab,                    ! Construction Type
  0,                                      ! Perturbable Layer
  Insulation,                             ! Perturbable Layer Type
  ;                                       ! Other Perturbable Layer Type

OS:WindowMaterial:SimpleGlazingSystem,
  {9c13d83a-0705-4bcc-b015-c30972a1b990}, !- Handle
  Glazing Layer,                          !- Name
  0.1,                                    !- U-Factor {W/m2-K}
  0.699999988079071,                      !- Solar Heat Gain Coefficient
  0.7;                                    !- Visible Transmittance

OS:Construction,
  {52066201-efd0-466c-8537-3855f9ae6ce3}, !- Handle
  fenestration___,                        !- Name
  ,                                       !- Surface Rendering Name
  {9c13d83a-0705-4bcc-b015-c30972a1b990}; !- Layer 1

OS:PlantLoop,
  {44d80162-1d93-4810-866b-b86287875171}, !- Handle
  Boiler plant 99,                        !- Name
  Water,                                  !- Fluid Type
  ,                                       !- User Defined Fluid Type
  ,                                       !- Plant Equipment Operation Scheme Name
  {256a2ce8-dfeb-43fd-af17-f8b03d3b5f61}, !- Loop Temperature Setpoint Node Name
  ,                                       !- Maximum Loop Temperature {C}
  ,                                       !- Minimum Loop Temperature {C}
  ,                                       !- Maximum Loop Flow Rate {m3/s}
  ,                                       !- Minimum Loop Flow Rate {m3/s}
  Autocalculate,                          !- Plant Loop Volume {m3}
  {da20282c-228f-4748-af52-f0d9c313d537}, !- Plant Side Inlet Node Name
  {4e9d34a8-2962-4225-9c2d-66ba2c39d255}, !- Plant Side Outlet Node Name
  ,                                       !- Plant Side Branch List Name
  {63f93179-0cfc-44e8-ae18-6b817474e1ed}, !- Demand Side Inlet Node Name
  {9e3bafad-cd7d-47f5-873a-dddf3e0fb781}, !- Demand Side Outlet Node Name
  ,                                       !- Demand Side Branch List Name
  ,                                       !- Demand Side Connector List Name
  ,                                       !- Load Distribution Scheme
  ,                                       !- Availability Manager List Name
  ,                                       !- Plant Loop Demand Calculation Scheme
  ,                                       !- Common Pipe Simulation
  ;                                       !- Pressure Simulation Type

OS:Sizing:Plant,
  {1910350b-4fad-40a5-9299-d6128a48c048}, !- Handle
  {44d80162-1d93-4810-866b-b86287875171}, !- Plant or Condenser Loop Name
  Heating,                                !- Loop Type
  82,                                     !- Design Loop Exit Temperature {C}
  11;                                     !- Loop Design Temperature Difference {deltaC}

OS:Node,
  {831a7431-2500-4fed-99a3-7694029aadd9}, !- Handle
  Node 1,                                 !- Name
  {da20282c-228f-4748-af52-f0d9c313d537}, !- Inlet Port
  {0f129cc0-589d-4f70-9c26-16a6572a4208}; !- Outlet Port

OS:Node,
  {256a2ce8-dfeb-43fd-af17-f8b03d3b5f61}, !- Handle
  Node 2,                                 !- Name
  {55818384-c402-4775-8714-8ec31cefa707}, !- Inlet Port
  {4e9d34a8-2962-4225-9c2d-66ba2c39d255}; !- Outlet Port

OS:Node,
  {b54b70a7-26ab-4424-927e-51b5fa8a8362}, !- Handle
  Node 3,                                 !- Name
  {d68c7f18-d284-4b3c-afe6-1f242cb2be18}, !- Inlet Port
  {208c1b23-9321-462d-9261-e1ff8b11dfbe}; !- Outlet Port

OS:Connector:Mixer,
  {81db8ef9-df70-4f93-9476-028b67dede25}, !- Handle
  Connector Mixer 1,                      !- Name
  {c8fd1811-c487-40b8-864d-8917231d0e34}, !- Outlet Branch Name
  {f131a871-d0c2-4383-a2dd-c5064464f6b8}, !- Inlet Branch Name 1
  {2fdd5684-2549-4096-8b48-cf47b9738856}; !- Inlet Branch Name 2

OS:Connector:Splitter,
  {cb5effee-e671-40a8-b5e4-6fa57fbb395c}, !- Handle
  Connector Splitter 1,                   !- Name
  {baebef0e-9b94-4a4c-9265-a5bc89b36a78}, !- Inlet Branch Name
  {d68c7f18-d284-4b3c-afe6-1f242cb2be18}, !- Outlet Branch Name 1
  {9024f0d7-33c6-4454-b131-97b689bfdbc8}; !- Outlet Branch Name 2

OS:Connection,
  {da20282c-228f-4748-af52-f0d9c313d537}, !- Handle
  Connection 1,                           !- Name
  {44d80162-1d93-4810-866b-b86287875171}, !- Source Object
  11,                                     !- Outlet Port
  {831a7431-2500-4fed-99a3-7694029aadd9}, !- Target Object
  2;                                      !- Inlet Port

OS:Connection,
  {d68c7f18-d284-4b3c-afe6-1f242cb2be18}, !- Handle
  Connection 3,                           !- Name
  {cb5effee-e671-40a8-b5e4-6fa57fbb395c}, !- Source Object
  3,                                      !- Outlet Port
  {b54b70a7-26ab-4424-927e-51b5fa8a8362}, !- Target Object
  2;                                      !- Inlet Port

OS:Connection,
  {4e9d34a8-2962-4225-9c2d-66ba2c39d255}, !- Handle
  Connection 6,                           !- Name
  {256a2ce8-dfeb-43fd-af17-f8b03d3b5f61}, !- Source Object
  3,                                      !- Outlet Port
  {44d80162-1d93-4810-866b-b86287875171}, !- Target Object
  12;                                     !- Inlet Port

OS:Node,
  {12d27242-5e42-49db-b0a8-48c4e9978da6}, !- Handle
  Node 4,                                 !- Name
  {63f93179-0cfc-44e8-ae18-6b817474e1ed}, !- Inlet Port
  {88b4d270-a768-4bbe-ae71-0e46b01c6913}; !- Outlet Port

OS:Node,
  {42d47830-a941-4051-b8cb-3af1c54aeb3c}, !- Handle
  Node 5,                                 !- Name
  {6122c54e-3545-4e64-a89b-1d7225c72522}, !- Inlet Port
  {9e3bafad-cd7d-47f5-873a-dddf3e0fb781}; !- Outlet Port

OS:Node,
  {6e002572-80f0-4d5a-83a3-6c43248be10f}, !- Handle
  Node 6,                                 !- Name
  {17fa84a7-d6d7-4a01-99d2-8209cc83a48b}, !- Inlet Port
  {8ecee1e9-4465-4e91-854b-1a29d41f4a85}; !- Outlet Port

OS:Connector:Mixer,
  {8a0b6c8b-1115-4413-a36b-b9e64936c81e}, !- Handle
  Connector Mixer 2,                      !- Name
  {6122c54e-3545-4e64-a89b-1d7225c72522}, !- Outlet Branch Name
  {8ecee1e9-4465-4e91-854b-1a29d41f4a85}; !- Inlet Branch Name 1

OS:Connector:Splitter,
  {4bb5d04c-184b-4819-be9c-9d545a746ddf}, !- Handle
  Connector Splitter 2,                   !- Name
  {88b4d270-a768-4bbe-ae71-0e46b01c6913}, !- Inlet Branch Name
  {17fa84a7-d6d7-4a01-99d2-8209cc83a48b}; !- Outlet Branch Name 1

OS:Connection,
  {63f93179-0cfc-44e8-ae18-6b817474e1ed}, !- Handle
  Connection 7,                           !- Name
  {44d80162-1d93-4810-866b-b86287875171}, !- Source Object
  14,                                     !- Outlet Port
  {12d27242-5e42-49db-b0a8-48c4e9978da6}, !- Target Object
  2;                                      !- Inlet Port

OS:Connection,
  {88b4d270-a768-4bbe-ae71-0e46b01c6913}, !- Handle
  Connection 8,                           !- Name
  {12d27242-5e42-49db-b0a8-48c4e9978da6}, !- Source Object
  3,                                      !- Outlet Port
  {4bb5d04c-184b-4819-be9c-9d545a746ddf}, !- Target Object
  2;                                      !- Inlet Port

OS:Connection,
  {17fa84a7-d6d7-4a01-99d2-8209cc83a48b}, !- Handle
  Connection 9,                           !- Name
  {4bb5d04c-184b-4819-be9c-9d545a746ddf}, !- Source Object
  3,                                      !- Outlet Port
  {6e002572-80f0-4d5a-83a3-6c43248be10f}, !- Target Object
  2;                                      !- Inlet Port

OS:Connection,
  {8ecee1e9-4465-4e91-854b-1a29d41f4a85}, !- Handle
  Connection 10,                          !- Name
  {6e002572-80f0-4d5a-83a3-6c43248be10f}, !- Source Object
  3,                                      !- Outlet Port
  {8a0b6c8b-1115-4413-a36b-b9e64936c81e}, !- Target Object
  3;                                      !- Inlet Port

OS:Connection,
  {6122c54e-3545-4e64-a89b-1d7225c72522}, !- Handle
  Connection 11,                          !- Name
  {8a0b6c8b-1115-4413-a36b-b9e64936c81e}, !- Source Object
  2,                                      !- Outlet Port
  {42d47830-a941-4051-b8cb-3af1c54aeb3c}, !- Target Object
  2;                                      !- Inlet Port

OS:Connection,
  {9e3bafad-cd7d-47f5-873a-dddf3e0fb781}, !- Handle
  Connection 12,                          !- Name
  {42d47830-a941-4051-b8cb-3af1c54aeb3c}, !- Source Object
  3,                                      !- Outlet Port
  {44d80162-1d93-4810-866b-b86287875171}, !- Target Object
  15;                                     !- Inlet Port

OS:Pump:VariableSpeed,
  {7ef8348e-1e0f-4386-a2e6-f994fee01bed}, !- Handle
  Heating: Pump for Boiler,               !- Name
  {0f129cc0-589d-4f70-9c26-16a6572a4208}, !- Inlet Node Name
  {a631a323-88f7-478c-8ac2-65724138be20}, !- Outlet Node Name
  ,                                       !- Rated Flow Rate {m3/s}
  ,                                       !- Rated Pump Head {Pa}
  ,                                       !- Rated Power Consumption {W}
  ,                                       !- Motor Efficiency