
OS:Version,
  {607891b0-0f29-4d3c-99c1-61c6a0b74529}, !- Handle
  1.0.6;                                  !- Version Identifier

OS:Schedule:Ruleset,
  {5d1e66e7-1117-4da9-9c3c-de7b1d08e762}, !- Handle
  Always_On,                              !- Name
  {e940abc3-f149-4a48-af3d-3bc88569563a}, !- Schedule Type Limits Name
  {ec1a7e8e-cbdc-4679-a93c-7310632f9f22}, !- Default Day Schedule Name
  {a986ce2f-0abb-4f88-a3c4-c4f1a2173e0d}, !- Summer Design Day Schedule Name
  {4d40b0de-ac2d-4b02-bdd8-471e4e3cbd8b}; !- Winter Design Day Schedule Name

OS:Schedule:Day,
  {ec1a7e8e-cbdc-4679-a93c-7310632f9f22}, !- Handle
  Always_On_Default,                      !- Name
  {e940abc3-f149-4a48-af3d-3bc88569563a}, !- Schedule Type Limits Name
  ,                                       !- Interpolate to Timestep
  24,                                     !- Hour 1
  0,                                      !- Minute 1
  1;                                      !- Value Until Time 1

OS:Schedule:Day,
  {aee755bc-0147-4113-9fce-99a7d743c6c4}, !- Handle
  Schedule Day 2,                         !- Name
  ,                                       !- Schedule Type Limits Name
  ,                                       !- Interpolate to Timestep
  24,                                     !- Hour 1
  0,                                      !- Minute 1
  0;                                      !- Value Until Time 1

OS:Schedule:Day,
  {4d40b0de-ac2d-4b02-bdd8-471e4e3cbd8b}, !- Handle
  Always_On_Winter_Design_Day,            !- Name
  {e940abc3-f149-4a48-af3d-3bc88569563a}, !- Schedule Type Limits Name
  ,                                       !- Interpolate to Timestep
  24,                                     !- Hour 1
  0,                                      !- Minute 1
  1;                                      !- Value Until Time 1

OS:Schedule:Day,
  {f1e57662-660c-448d-926b-79fc307af65d}, !- Handle
  Schedule Day 3,                         !- Name
  ,                                       !- Schedule Type Limits Name
  ,                                       !- Interpolate to Timestep
  24,                                     !- Hour 1
  0,                                      !- Minute 1
  0;                                      !- Value Until Time 1

OS:Schedule:Day,
  {a986ce2f-0abb-4f88-a3c4-c4f1a2173e0d}, !- Handle
  Always_On_Summer_Design_Day,            !- Name
  {e940abc3-f149-4a48-af3d-3bc88569563a}, !- Schedule Type Limits Name
  ,                                       !- Interpolate to Timestep
  24,                                     !- Hour 1
  0,                                      !- Minute 1
  1;                                      !- Value Until Time 1

OS:Schedule:Ruleset,
  {66c1f710-5bc4-4432-8cee-0ad26602170e}, !- Handle
  Always_Off,                             !- Name
  ,                                       !- Schedule Type Limits Name
  {b451aadc-7393-4e52-83c2-5021420f6797}, !- Default Day Schedule Name
  {5c03ba49-10ef-4590-857b-dc8c048ac457}, !- Summer Design Day Schedule Name
  {a59f2de1-387b-40e0-ab9a-5baadc264b17}; !- Winter Design Day Schedule Name

OS:Schedule:Day,
  {b451aadc-7393-4e52-83c2-5021420f6797}, !- Handle
  Always_Off_Default,                     !- Name
  ,                                       !- Schedule Type Limits Name
  ,                                       !- Interpolate to Timestep
  24,                                     !- Hour 1
  0,                                      !- Minute 1
  0;                                      !- Value Until Time 1

OS:Schedule:Day,
  {57317a32-81f6-4bfc-853e-2ec58ded524f}, !- Handle
  Schedule Day 4,                         !- Name
  ,                                       !- Schedule Type Limits Name
  ,                                       !- Interpolate to Timestep
  24,                                     !- Hour 1
  0,                                      !- Minute 1
  0;                                      !- Value Until Time 1

OS:Schedule:Day,
  {a59f2de1-387b-40e0-ab9a-5baadc264b17}, !- Handle
  Always_Off_Winter_Design_Day,           !- Name
  ,                                       !- Schedule Type Limits Name
  ,                                       !- Interpolate to Timestep
  24,                                     !- Hour 1
  0,                                      !- Minute 1
  0;                                      !- Value Until Time 1

OS:Schedule:Day,
  {abe077a8-9405-4566-9590-9c6909e011b3}, !- Handle
  Schedule Day 5,                         !- Name
  ,                                       !- Schedule Type Limits Name
  ,                                       !- Interpolate to Timestep
  24,                                     !- Hour 1
  0,                                      !- Minute 1
  0;                                      !- Value Until Time 1

OS:Schedule:Day,
  {5c03ba49-10ef-4590-857b-dc8c048ac457}, !- Handle
  Always_Off_Summer_Design_Day,           !- Name
  ,                                       !- Schedule Type Limits Name
  ,                                       !- Interpolate to Timestep
  24,                                     !- Hour 1
  0,                                      !- Minute 1
  0;                                      !- Value Until Time 1

OS:Schedule:Ruleset,
  {6cb019c8-50fe-468b-9c38-3dd16d728694}, !- Handle
  Deck_Temperature,                       !- Name
  {465e865d-d049-46d2-a7c8-4f07c3cda5bf}, !- Schedule Type Limits Name
  {d9ac6067-de6f-4a0a-a667-12b1ec0a14e0}, !- Default Day Schedule Name
  {c631b40c-c8a3-448f-8f7e-71f50e2ab654}, !- Summer Design Day Schedule Name
  {719c6a63-487a-49d4-9405-b33966b0f4dc}; !- Winter Design Day Schedule Name

OS:Schedule:Day,
  {d9ac6067-de6f-4a0a-a667-12b1ec0a14e0}, !- Handle
  Deck_Temperature_Default,               !- Name
  {465e865d-d049-46d2-a7c8-4f07c3cda5bf}, !- Schedule Type Limits Name
  ,                                       !- Interpolate to Timestep
  24,                                     !- Hour 1
  0,                                      !- Minute 1
  12.8;                                   !- Value Until Time 1

OS:Schedule:Day,
  {d69ef44d-63e0-41d2-8b61-64f3b4ea20be}, !- Handle
  Schedule Day 6,                         !- Name
  ,                                       !- Schedule Type Limits Name
  ,                                       !- Interpolate to Timestep
  24,                                     !- Hour 1
  0,                                      !- Minute 1
  0;                                      !- Value Until Time 1

OS:Schedule:Day,
  {719c6a63-487a-49d4-9405-b33966b0f4dc}, !- Handle
  Deck_Temperature_Winter_Design_Day,     !- Name
  {465e865d-d049-46d2-a7c8-4f07c3cda5bf}, !- Schedule Type Limits Name
  ,                                       !- Interpolate to Timestep
  24,                                     !- Hour 1
  0,                                      !- Minute 1
  12.8;                                   !- Value Until Time 1

OS:Schedule:Day,
  {728e1c34-9914-46c4-848a-7e0b259f907b}, !- Handle
  Schedule Day 7,                         !- Name
  ,                                       !- Schedule Type Limits Name
  ,                                       !- Interpolate to Timestep
  24,                                     !- Hour 1
  0,                                      !- Minute 1
  0;                                      !- Value Until Time 1

OS:Schedule:Day,
  {c631b40c-c8a3-448f-8f7e-71f50e2ab654}, !- Handle
  Deck_Temperature_Summer_Design_Day,     !- Name
  {465e865d-d049-46d2-a7c8-4f07c3cda5bf}, !- Schedule Type Limits Name
  ,                                       !- Interpolate to Timestep
  24,                                     !- Hour 1
  0,                                      !- Minute 1
  12.8;                                   !- Value Until Time 1

OS:Construction,
  {2f1c6dbe-fe87-4cc0-be78-37f92355890c}, !- Handle
  INT-FLOOR-TOPSIDE,                      !- Name
  ,                                       !- Surface Rendering Name
  {4452e3df-7f3d-4a3b-8940-0f3da94599a2}, !- Layer 1
  {e2f3fc7a-b8b0-4500-af01-674622fafaa2}, !- Layer 2
  {9c3d8c2d-99e4-45f1-81d8-d98abf7d2866}; !- Layer 3

OS:Material,
  {4452e3df-7f3d-4a3b-8940-0f3da94599a2}, !- Handle
  1/2IN Gypsum,                           !- Name
  Smooth,                                 !- Roughness
  0.0127,                                 !- Thickness {m}
  0.1600,                                 !- Conductivity {W/m-K}
  784.9000,                               !- Density {kg/m3}
  830.0000,                               !- Specific Heat {J/kg-K}
  0.9000,                                 !- Thermal Absorptance
  0.9200,                                 !- Solar Absorptance
  0.9200;                                 !- Visible Absorptance

OS:Material,
  {e2f3fc7a-b8b0-4500-af01-674622fafaa2}, !- Handle
  4IN CONCRETE HW,                        !- Name
  Rough,                                  !- Roughness
  0.1016,                                 !- Thickness {m}
  1.3110,                                 !- Conductivity {W/m-K}
  2240.0000,                              !- Density {kg/m3}
  836.8000,                               !- Specific Heat {J/kg-K}
  0.9000,                                 !- Thermal Absorptance
  0.7000,                                 !- Solar Absorptance
  0.7000;                                 !- Visible Absorptance

OS:Material:NoMass,
  {9c3d8c2d-99e4-45f1-81d8-d98abf7d2866}, !- Handle
  CP02 CARPET PAD,                        !- Name
  VeryRough,                              !- Roughness
  0.2165,                                 !- Thermal Resistance {m2-K/W}
  0.9000,                                 !- Thermal Absorptance
  0.7000,                                 !- Solar Absorptance
  0.8000;                                 !- Visible Absorptance

OS:StandardsInformation:Construction,
  {7e11bd73-2354-4d16-af88-0adcb31fa1e6}, !- Handle
  {2f1c6dbe-fe87-4cc0-be78-37f92355890c}, ! Construction Name
  ,                                       ! Intended Surface Type
  Mass,                                   ! Construction Type
  0,                                      ! Perturbable Layer
  Insulation,                             ! Perturbable Layer Type
  ;                                       ! Other Perturbable Layer Type

OS:Construction,
  {649d6e06-bec0-49b6-b212-5804a90337c7}, !- Handle
  INT-FLOOR-UNDERSIDE,                    !- Name
  ,                                       !- Surface Rendering Name
  {9c3d8c2d-99e4-45f1-81d8-d98abf7d2866}, !- Layer 1
  {e2f3fc7a-b8b0-4500-af01-674622fafaa2}, !- Layer 2
  {4452e3df-7f3d-4a3b-8940-0f3da94599a2}; !- Layer 3

OS:StandardsInformation:Construction,
  {e18c7f71-095f-448e-bf84-07e69b4b54cb}, !- Handle
  {649d6e06-bec0-49b6-b212-5804a90337c7}, ! Construction Name
  ,                                       ! Intended Surface Type
  Mass,                                   ! Construction Type
  1,                                      ! Perturbable Layer
  Insulation,                             ! Perturbable Layer Type
  ;                                       ! Other Perturbable Layer Type

OS:Construction,
  {9db38b18-7743-4b13-b7c0-e3715f40ec50}, !- Handle
  Standard_Int-Wall,                      !- Name
  ,                                       !- Surface Rendering Name
  {4452e3df-7f3d-4a3b-8940-0f3da94599a2}, !- Layer 1
  {4452e3df-7f3d-4a3b-8940-0f3da94599a2}; !- Layer 2

OS:StandardsInformation:Construction,
  {bfa3bc2c-a40e-4f9b-aace-bc3e8ae2b75b}, !- Handle
  {9db38b18-7743-4b13-b7c0-e3715f40ec50}, ! Construction Name
  ,                                       ! Intended Surface Type
  Mass,                                   ! Construction Type
  0,                                      ! Perturbable Layer
  Insulation,                             ! Perturbable Layer Type
  ;                                       ! Other Perturbable Layer Type

OS:DefaultSurfaceConstructions,
  {dde2683b-f458-423a-9e13-8826c8832226}, !- Handle
  Default Surface Constructions 1,        !- Name
  {2f1c6dbe-fe87-4cc0-be78-37f92355890c}, !- Floor Construction Name
  {9db38b18-7743-4b13-b7c0-e3715f40ec50}, !- Wall Construction Name
  {649d6e06-bec0-49b6-b212-5804a90337c7}; !- Roof Ceiling Construction Name

OS:DefaultConstructionSet,
  {e1c81052-e060-462c-b62d-eeac988f444d}, !- Handle
  Default Construction Set 1,             !- Name
  ,                                       !- Default Exterior Surface Constructions Name
  {dde2683b-f458-423a-9e13-8826c8832226}, !- Default Interior Surface Constructions Name
  ,                                       !- Default Ground Contact Surface Constructions Name
  ,                                       !- Default Exterior SubSurface Constructions Name
  ,                                       !- Default Interior SubSurface Constructions Name
  ,                                       !- Interior Partition Construction Name
  ,                                       !- Space Shading Construction Name
  ,                                       !- Building Shading Construction Name
  ;                                       !- Site Shading Construction Name

OS:Building,
  {76d68860-31d3-4a11-9a6b-fffdd029df5f}, !- Handle
  Building 1,                             !- Name
  ,                                       !- Building Type
  ,                                       !- North Axis {deg}
  ,                                       !- Nominal Floor to Floor Height {m}
  ,                                       !- Space Type Name
  {e1c81052-e060-462c-b62d-eeac988f444d}, !- Default Construction Set Name
  ;                                       !- Default Schedule Set Name

! Exterior Walls
OS:Construction,
  {1717e5a1-045e-473d-b068-2484c71af1f0}, !- Handle
  Masonry_Steel_Frame_Wall,               !- Name
  ,                                       !- Surface Rendering Name
  {b32060df-b659-414b-829a-c15591e00319}, !- Layer 1
  {30da7b5e-ae00-464a-a0e7-8d7ff1482cfd}, !- Layer 2
  {4452e3df-7f3d-4a3b-8940-0f3da94599a2}; !- Layer 3

OS:Material,
  {b32060df-b659-414b-829a-c15591e00319}, !- Handle
  M01 100mm brick,                        !- Name
  MediumRough,                            !- Roughness
  0.1016,                                 !- Thickness {m}
  0.89,                                   !- Conductivity {W/m-K}
  1920,                                   !- Density {kg/m3}
  790,                                    !- Specific Heat {J/kg-K}
  0.9000,                                 !- Thermal Absorptance
  0.700,                                  !- Solar Absorptance
  0.700;                                  !- Visible Absorptance

OS:Material,
  {30da7b5e-ae00-464a-a0e7-8d7ff1482cfd}, !- Handle
  Steel Frame Wall Insulation,            !- Name
  MediumRough,                            !- Roughness
  0.134340245663395,                      !- Thickness {m}
  0.049,                                  !- Conductivity {W/m-K}
  265.0000,                               !- Density {kg/m3}
  836.8000,                               !- Specific Heat {J/kg-K}
  0.9000,                                 !- Thermal Absorptance
  0.7000,                                 !- Solar Absorptance
  0.7000;                                 !- Visible Absorptance

OS:StandardsInformation:Construction,
  {16d0d9b5-df90-4aff-b36a-510dc43b96e4}, !- Handle
  {1717e5a1-045e-473d-b068-2484c71af1f0}, ! Construction Name
  ,                                       ! Intended Surface Type
  Steel-Framed,                           ! Construction Type
  1,                                      ! Perturbable Layer
  Insulation,                             ! Perturbable Layer Type
  ;                                       ! Other Perturbable Layer Type

! Roof from DOE reference building new warehouse
OS:Construction,
  {a01c462b-a867-48d9-bcf4-5f74ed5760ea}, !- Handle
  Shingles_Shakes_Roof,                   !- Name
  ,                                       !- Surface Rendering Name
  {30ad6dd2-c2d9-4d5d-98f2-843247a1eeae}, !- Layer 1
  {a8c819ae-83cd-404f-ba84-8430a8a8e549}, !- Layer 2
  {4452e3df-7f3d-4a3b-8940-0f3da94599a2}; !- Layer 3

OS:Material,
  {30ad6dd2-c2d9-4d5d-98f2-843247a1eeae}, !- Handle
  Metal Roofing,                          !- Name
  MediumSmooth,                           !- Roughness
  0.0015,                                 !- Thickness {m}
  45.0060,                                !- Conductivity {W/m-K}
  7680.0000,                              !- Density {kg/m3}
  418.4000,                               !- Specific Heat {J/kg-K}
  0.9000,                                 !- Thermal Absorptance
  0.7000,                                 !- Solar Absorptance
  0.3000;                                 !- Visible Absorptance

OS:Material,
  {a8c819ae-83cd-404f-ba84-8430a8a8e549}, !- Handle
  Attic and Other Insulation,             !- Name
  MediumRough,                            !- Roughness
  0.168696979689289,                      !- Thickness {m}
  0.049,                                  !- Conductivity {W/m-K}
  265.0000,                               !- Density {kg/m3}
  836.8000,                               !- Specific Heat {J/kg-K}
  0.9000,                                 !- Thermal Absorptance
  0.7000,                                 !- Solar Absorptance
  0.7000;                                 !- Visible Absorptance

OS:StandardsInformation:Construction,
  {87a29702-85d7-43e7-8964-04f4be18c5e0}, !- Handle
  {a01c462b-a867-48d9-bcf4-5f74ed5760ea}, ! Construction Name
  ,                                       ! Intended Surface Type
  Attic and Other,                        ! Construction Type
  1,                                      ! Perturbable Layer
  Insulation,                             ! Perturbable Layer Type
  ;                                       ! Other Perturbable Layer Type

OS:Construction,
  {101b790c-dd59-4edf-8f32-1710c713ba6d}, !- Handle
  Insul_slab,                             !- Name
  ,                                       !- Surface Rendering Name
  {133f48c2-c74e-4eed-a6bc-6f8175caef90}, !- Layer 1
  {01e371bc-e46e-4aa6-9baf-67e66b116875}; !- Layer 2

OS:Material,
  {133f48c2-c74e-4eed-a6bc-6f8175caef90}, !- Handle
  Floor Insulation,                       !- Name
  MediumRough,                            !- Roughness
  0.0795,                                 !- Thickness {m}
  0.0450,                                 !- Conductivity {W/m-K}
  265.0000,                               !- Density {kg/m3}
  836.8000,                               !- Specific Heat {J/kg-K}
  0.9000,                                 !- Thermal Absorptance
  0.7000,                                 !- Solar Absorptance
  0.7000;                                 !- Visible Absorptance

OS:Material,
  {01e371bc-e46e-4aa6-9baf-67e66b116875}, !- Handle
  MAT-CC05 8 HW CONCRETE,                 !- Name
  Rough,                                  !- Roughness
  0.2032,                                 !- Thickness {m}
  1.3110,                                 !- Conductivity {W/m-K}
  2240.0000,                              !- Density {kg/m3}
  836.8000,                               !- Specific Heat {J/kg-K}
  0.9000,                                 !- Thermal Absorptance
  0.7000,                                 !- Solar Absorptance
  0.7000;                                 !- Visible Absorptance

OS:StandardsInformation:Construction,
  {30d3fee3-8fb0-4070-9c57-12b9c76b6a2f}, !- Handle
  {101b790c-dd59-4edf-8f32-1710c713ba6d}, ! Construction Name
  ,                                       ! Intended Surface Type
  Exterior Floor:Slab,                    ! Construction Type
  0,                                      ! Perturbable Layer
  Insulation,                             ! Perturbable Layer Type
  ;                                       ! Other Perturbable Layer Type

OS:WindowMaterial:SimpleGlazingSystem,
  {fe04f16e-6d25-4598-b89c-af9d1f4290c4}, !- Handle
  Glazing Layer,                          !- Name
  2.55521828230983,                       !- U-Factor {W/m2-K}
  0.435,                                  !- Solar Heat Gain Coefficient
  0.7;                                    !- Visible Transmittance

OS:Construction,
  {7f514f89-6c31-4d3b-87bc-d90aa90f9bbd}, !- Handle
  fenestration___,                        !- Name
  ,                                       !- Surface Rendering Name
  {fe04f16e-6d25-4598-b89c-af9d1f4290c4}; !- Layer 1

OS:PlantLoop,
  {72d23b69-dc37-4cc0-9225-d93fd7e1701f}, !- Handle
  Chiller plant 12,                       !- Name
  ,                                       !- Fluid Type
  ,                                       !- User Defined Fluid Type
  ,                                       !- Plant Equipment Operation Scheme Name
  {4ccd4091-91a3-41b7-be95-78bf0678398b}, !- Loop Temperature Setpoint Node Name
  ,                                       !- Maximum Loop Temperature {C}
  ,                                       !- Minimum Loop Temperature {C}
  ,                                       !- Maximum Loop Flow Rate {m3/s}
  ,                                       !- Minimum Loop Flow Rate {m3/s}
  Autocalculate,                          !- Plant Loop Volume {m3}
  {4ac4d4cc-e727-48bc-a34c-b260fee3e3a7}, !- Plant Side Inlet Node Name
  {a71d623c-ea10-41c6-85a2-f8f0dc9b92c7}, !- Plant Side Outlet Node Name
  ,                                       !- Plant Side Branch List Name
  {0f5579b3-a8e4-43bf-a0af-b5a832804268}, !- Demand Side Inlet Node Name
  {9e83bc30-9abb-4c0b-b9c3-fcb1e2866dee}, !- Demand Side Outlet Node Name
  ,                                       !- Demand Side Branch List Name
  ,                                       !- Demand Side Connector List Name
  ,                                       !- Load Distribution Scheme
  ,                                       !- Availability Manager List Name
  ,                                       !- Plant Loop Demand Calculation Scheme
  ,                                       !- Common Pipe Simulation
  ;                                       !- Pressure Simulation Type

OS:Sizing:Plant,
  {6d69700d-d7bf-438d-ad7c-2ab864e64848}, !- Handle
  {72d23b69-dc37-4cc0-9225-d93fd7e1701f}, !- Plant or Condenser Loop Name
  Cooling,                                !- Loop Type
  6.67,                                   !- Design Loop Exit Temperature {C}
  5.6;                                    !- Loop Design Temperature Difference {deltaC}

OS:Node,
  {8fb29f88-24a0-48e3-9a51-275fd2fc85be}, !- Handle
  Node 1,                                 !- Name
  {4ac4d4cc-e727-48bc-a34c-b260fee3e3a7}, !- Inlet Port
  {ebbc9432-da7d-43ea-97ee-d23f22c34f1e}; !- Outlet Port

OS:Node,
  {4ccd4091-91a3-41b7-be95-78bf0678398b}, !- Handle
  Node 2,                                 !- Name
  {c2a2f0a1-e7a3-4659-a01f-c18b9e8f76ab}, !- Inlet Port
  {a71d623c-ea10-41c6-85a2-f8f0dc9b92c7}; !- Outlet Port

OS:Node,
  {9f2b5e5d-899d-4c02-80f2-1172e11f22c0}, !- Handle
  Node 3,                                 !- Name
  {62530a46-b4b0-475e-9e6d-a3df65387881}, !- Inlet Port
  {153c073f-90df-4552-bbc0-d12c496761d2}; !- Outlet Port

OS:Connector:Mixer,
  {cd67b55b-3d01-4b57-8717-f65b7b09ae77}, !- Handle
  Connector Mixer 1,                      !- Name
  {0f724dbc-1719-48db-b346-4895929e304d}, !- Outlet Branch Name
  {9c77a6b8-d494-4afd-a558-909eeaac6966}, !- Inlet Branch Name 1
  {aa4097f5-5372-47d6-bfac-4f3574fe1174}; !- Inlet Branch Name 2

OS:Connector:Splitter,
  {e4543386-3582-4136-80bd-dee069f27fac}, !- Handle
  Connector Splitter 1,                   !- Name
  {279b100f-1679-4772-9d12-32eb741025be}, !- Inlet Branch Name
  {62530a46-b4b0-475e-9e6d-a3df65387881}, !- Outlet Branch Name 1
  {09b1bdb6-877e-4c46-9baf-16a82f67e56e}; !- Outlet Branch Name 2

OS:Connection,
  {4ac4d4cc-e727-48bc-a34c-b260fee3e3a7}, !- Handle
  Connection 1,                           !- Name
  {72d23b69-dc37-4cc0-9225-d93fd7e1701f}, !- Source Object
  11,                                     !- Outlet Port
  {8fb29f88-24a0-48e3-9a51-275fd2fc85be}, !- Target Object
  2;                                      !- Inlet Port

OS:Connection,
  {62530a46-b4b0-475e-9e6d-a3df65387881}, !- Handle
  Connection 3,                           !- Name
  {e4543386-3582-4136-80bd-dee069f27fac}, !- Source Object
  3,                                      !- Outlet Port
  {9f2b5e5d-899d-4c02-80f2-1172e11f22c0}, !- Target Object
  2;                                      !- Inlet Port

OS:Connection,
  {a71d623c-ea10-41c6-85a2-f8f0dc9b92c7}, !- Handle
  Connection 6,                           !- Name
  {4ccd4091-91a3-41b7-be95-78bf0678398b}, !- Source Object
  3,                                      !- Outlet Port
  {72d23b69-dc37-4cc0-9225-d93fd7e1701f}, !- Target Object
  12;                                     !- Inlet Port

OS:Node,
  {d8cd3a01-eb17-42f8-9042-c1adea9afef2}, !- Handle
  Node 4,                                 !- Name
  {0f5579b3-a8e4-43bf-a0af-b5a832804268}, !- Inlet Port
  {34a1adf2-c9ca-453f-b280-f91e06acfbe9}; !- Outlet Port

OS:Node,
  {2a488dcb-6d7d-4401-8c1a-54d518a0314d}, !- Handle
  Node 5,                                 !- Name
  {7324e70b-dcc7-4881-8b86-e4b0fa17c9a4}, !- Inlet Port
  {9e83bc30-9abb-4c0b-b9c3-fcb1e2866dee}; !- Outlet Port

OS:Node,
  {1e8708d5-b1d5-4c33-b770-eab5d8cb3184}, !- Handle
  Node 6,                                 !- Name
  {d80647a7-bbe8-4bca-970a-50cd04be7592}, !- Inlet Port
  {83196ff1-131c-4570-a5bc-1e39a43cf740}; !- Outlet Port

OS:Connector:Mixer,
  {0e0c700f-cebc-44fd-b359-9a35b39e9c9c}, !- Handle
  Connector Mixer 2,                      !- Name
  {7324e70b-dcc7-4881-8b86-e4b0fa17c9a4}, !- Outlet Branch Name
  {7c7f674b-2ae6-4813-be94-77cdee39979e}; !- Inlet Branch Name 1

OS:Connector:Splitter,
  {736cb8fd-5bee-43a1-9926-5c8463b03529}, !- Handle
  Connector Splitter 2,                   !- Name
  {34a1adf2-c9ca-453f-b280-f91e06acfbe9}, !- Inlet Branch Name
  {d80647a7-bbe8-4bca-970a-50cd04be7592}; !- Outlet Branch Name 1

OS:Connection,
  {0f5579b3-a8e4-43bf-a0af-b5a832804268}, !- Handle
  Connection 7,                           !- Name
  {72d23b69-dc37-4cc0-9225-d93fd7e1701f}, !- Source Object
  14,                                     !- Outlet Port
  {d8cd3a01-eb17-42f8-9042-c1adea9afef2}, !- Target Object
  2;                                      !- Inlet Port

OS:Connection,
  {34a1adf2-c9ca-453f-b280-f91e06acfbe9}, !- Handle
  Connection 8,                           !- Name
  {d8cd3a01-eb17-42f8-9042-c1adea9afef2}, !- Source Object
  3,                                      !- Outlet Port
  {736cb8fd-5bee-43a1-9926-5c8463b03529}, !- Target Object
  2;                                      !- Inlet Port

OS:Connection,
  {d80647a7-bbe8-4bca-970a-50cd04be7592}, !- Handle
  Connection 9,                           !- Name
  {736cb8fd-5bee-43a1-9926-5c8463b03529}, !- Source Object
  3,                                      !- Outlet Port
  {1e8708d5-b1d5-4c33-b770-eab5d8cb3184}, !- Target Object
  2;                                      !- Inlet Port

OS:Connection,
  {7324e70b-dcc7-4881-8b86-e4b0fa17c9a4}, !- Handle
  Connection 11,                          !- Name
  {0e0c700f-cebc-44fd-b359-9a35b39e9c9c}, !- Source Object
  2,                                      !- Outlet Port
  {2a488dcb-6d7d-4401-8c1a-54d518a0314d}, !- Target Object
  2;                                      !- Inlet Port

OS:Connection,
  {9e83bc30-9abb-4c0b-b9c3-fcb1e2866dee}, !- Handle
  Connection 12,                          !- Name
  {2a488dcb-6d7d-4401-8c1a-54d518a0314d}, !- Source Object
  3,                                      !- Outlet Port
  {72d23b69-dc37-4cc0-9225-d93fd7e1701f}, !- Target Object
  15;                                     !- Inlet Port

OS:Pump:VariableSpeed,
  {d38b6c64-6d8f-4712-a23d-5ba7274a8fb8}, !- Handle
  Cooling: Pump for Chiller,              !- Name
  {ebbc9432-da7d-43ea-97ee-d23f22c34f1e}, !- Inlet Node Name
  {de98aeb9-6b8c-4eae-b82b-81b490367da2}, !- Outlet Node Name
  ,                                       !- Rated Flow Rate {m3/s}
  ,                                       !- Rated Pump Head {Pa}
  ,                                       !- Rated Power Consumption {W}
  ,                                       !- Motor Efficiency
  ,                                       !- Fraction of Motor Inefficiencies to Fluid Stream
  ,                                       !- Coefficient 1 of the Part Load Performance Curve
  ,                                       !- Coefficient 2 of the Part Load Performance Curve
  ,                                       !- Coefficient 3 of the Part Load Performance Curve
  ,                                       !- Coefficient 4 of the Part Load Performance Curve
  ,                                       !- Minimum Flow Rate {m3/s}
  Intermittent;                           !- Pump Control Type

OS:Node,
  {a5e49140-f3d3-4e96-9e41-28536168a39d}, !- Handle
  Node 7,                                 !- Name
  {de98aeb9-6b8c-4eae-b82b-81b490367da2}, !- Inlet Port
  {279b100f-1679-4772-9d12-32eb741025be}; !- Outlet Port

OS:Connection,
  {ebbc9432-da7d-43ea-97ee-d23f22c34f1e}, !- Handle
  Connection 2,                           !- Name
  {8fb29f88-24a0-48e3-9a51-275fd2fc85be}, !- Source Object
  3,                                      !- Outlet Port
  {d38b6c64-6d8f-4712-a23d-5ba7274a8fb8}, !- Target Object
  2;                                      !- Inlet Port

OS:Connection,
  {de98aeb9-6b8c-4eae-b82b-81b490367da2}, !- Handle
  Connection 13,                          !- Name
  {d38b6c64-6d8f-4712-a23d-5ba7274a8fb8}, !- Source Object
  3,                                      !- Outlet Port
  {a5e49140-f3d3-4e96-9e41-28536168a39d}, !- Target Object
  2;                                      !- Inlet Port

OS:Connection,
  {279b100f-1679-4772-9d12-32eb741025be}, !- Handle
  Connection 14,                          !- Name