
OS:Version,
  {8e716e43-052b-495e-b934-6f32d7f685d7}, !- Handle
  1.0.6;                                  !- Version Identifier

OS:Schedule:Ruleset,
  {48378be4-e8cf-46fe-926f-8d0633163ca8}, !- Handle
  Always_On,                              !- Name
  ,                                       !- Schedule Type Limits Name
  {b0cefaa0-f6d9-47bd-9160-13ed60a3a5a9}, !- Default Day Schedule Name
  {310a57ca-34db-439e-b50d-f5dc129e1e93}, !- Summer Design Day Schedule Name
  {8289453f-e0c8-4478-954a-8d8cad7213c1}; !- Winter Design Day Schedule Name

OS:Schedule:Day,
  {b0cefaa0-f6d9-47bd-9160-13ed60a3a5a9}, !- Handle
  Always_On_Default,                      !- Name
  ,                                       !- Schedule Type Limits Name
  ,                                       !- Interpolate to Timestep
  24,                                     !- Hour 1
  0,                                      !- Minute 1
  1;                                      !- Value Until Time 1

OS:Schedule:Day,
  {41d22522-3203-4066-ba54-fb6cf041fa28}, !- Handle
  Schedule Day 2,                         !- Name
  ,                                       !- Schedule Type Limits Name
  ,                                       !- Interpolate to Timestep
  24,                                     !- Hour 1
  0,                                      !- Minute 1
  0;                                      !- Value Until Time 1

OS:Schedule:Day,
  {8289453f-e0c8-4478-954a-8d8cad7213c1}, !- Handle
  Always_On_Winter_Design_Day,            !- Name
  ,                                       !- Schedule Type Limits Name
  ,                                       !- Interpolate to Timestep
  24,                                     !- Hour 1
  0,                                      !- Minute 1
  1;                                      !- Value Until Time 1

OS:Schedule:Day,
  {7dfe4c4f-d799-4f90-a3cd-255d0b59e6bc}, !- Handle
  Schedule Day 3,                         !- Name
  ,                                       !- Schedule Type Limits Name
  ,                                       !- Interpolate to Timestep
  24,                                     !- Hour 1
  0,                                      !- Minute 1
  0;                                      !- Value Until Time 1

OS:Schedule:Day,
  {310a57ca-34db-439e-b50d-f5dc129e1e93}, !- Handle
  Always_On_Summer_Design_Day,            !- Name
  ,                                       !- Schedule Type Limits Name
  ,                                       !- Interpolate to Timestep
  24,                                     !- Hour 1
  0,                                      !- Minute 1
  1;                                      !- Value Until Time 1

OS:Schedule:Ruleset,
  {16ee6fcf-1031-447d-9478-e6130675c668}, !- Handle
  Always_Off,                             !- Name
  ,                                       !- Schedule Type Limits Name
  {95629622-51a6-4a08-9968-8260e3eabf2b}, !- Default Day Schedule Name
  {4e94bbc7-d270-4b1a-a83f-57b636e62a45}, !- Summer Design Day Schedule Name
  {36c64d53-b0bb-4070-9dc9-e268869366de}; !- Winter Design Day Schedule Name

OS:Schedule:Day,
  {95629622-51a6-4a08-9968-8260e3eabf2b}, !- Handle
  Always_Off_Default,                     !- Name
  ,                                       !- Schedule Type Limits Name
  ,                                       !- Interpolate to Timestep
  24,                                     !- Hour 1
  0,                                      !- Minute 1
  0;                                      !- Value Until Time 1

OS:Schedule:Day,
  {45399ec4-6af1-4826-9ceb-be4ebe1ae7c6}, !- Handle
  Schedule Day 4,                         !- Name
  ,                                       !- Schedule Type Limits Name
  ,                                       !- Interpolate to Timestep
  24,                                     !- Hour 1
  0,                                      !- Minute 1
  0;                                      !- Value Until Time 1

OS:Schedule:Day,
  {36c64d53-b0bb-4070-9dc9-e268869366de}, !- Handle
  Always_Off_Winter_Design_Day,           !- Name
  ,                                       !- Schedule Type Limits Name
  ,                                       !- Interpolate to Timestep
  24,                                     !- Hour 1
  0,                                      !- Minute 1
  0;                                      !- Value Until Time 1

OS:Schedule:Day,
  {39738660-ac4b-489f-9a55-1f3c0d01f755}, !- Handle
  Schedule Day 5,                         !- Name
  ,                                       !- Schedule Type Limits Name
  ,                                       !- Interpolate to Timestep
  24,                                     !- Hour 1
  0,                                      !- Minute 1
  0;                                      !- Value Until Time 1

OS:Schedule:Day,
  {4e94bbc7-d270-4b1a-a83f-57b636e62a45}, !- Handle
  Always_Off_Summer_Design_Day,           !- Name
  ,                                       !- Schedule Type Limits Name
  ,                                       !- Interpolate to Timestep
  24,                                     !- Hour 1
  0,                                      !- Minute 1
  0;                                      !- Value Until Time 1

OS:Schedule:Ruleset,
  {09859e64-68f4-40a7-92c6-66f95b00ad97}, !- Handle
  Deck_Temperature,                       !- Name
  ,                                       !- Schedule Type Limits Name
  {403bf6ae-050d-4a1a-aa90-7cef12055880}, !- Default Day Schedule Name
  {765c5e13-f5f0-49be-8dae-3c83139b6890}, !- Summer Design Day Schedule Name
  {8b296433-cee3-4c07-a05d-b55b53db1106}; !- Winter Design Day Schedule Name

OS:Schedule:Day,
  {403bf6ae-050d-4a1a-aa90-7cef12055880}, !- Handle
  Deck_Temperature_Default,               !- Name
  ,                                       !- Schedule Type Limits Name
  ,                                       !- Interpolate to Timestep
  24,                                     !- Hour 1
  0,                                      !- Minute 1
  12.8;                                   !- Value Until Time 1

OS:Schedule:Day,
  {4a87b7d9-feb1-4846-9e5a-400bd4ddecf2}, !- Handle
  Schedule Day 6,                         !- Name
  ,                                       !- Schedule Type Limits Name
  ,                                       !- Interpolate to Timestep
  24,                                     !- Hour 1
  0,                                      !- Minute 1
  0;                                      !- Value Until Time 1

OS:Schedule:Day,
  {8b296433-cee3-4c07-a05d-b55b53db1106}, !- Handle
  Deck_Temperature_Winter_Design_Day,     !- Name
  ,                                       !- Schedule Type Limits Name
  ,                                       !- Interpolate to Timestep
  24,                                     !- Hour 1
  0,                                      !- Minute 1
  12.8;                                   !- Value Until Time 1

OS:Schedule:Day,
  {6c6395b4-7c38-427a-923a-a60d14c66b6d}, !- Handle
  Schedule Day 7,                         !- Name
  ,                                       !- Schedule Type Limits Name
  ,                                       !- Interpolate to Timestep
  24,                                     !- Hour 1
  0,                                      !- Minute 1
  0;                                      !- Value Until Time 1

OS:Schedule:Day,
  {765c5e13-f5f0-49be-8dae-3c83139b6890}, !- Handle
  Deck_Temperature_Summer_Design_Day,     !- Name
  ,                                       !- Schedule Type Limits Name
  ,                                       !- Interpolate to Timestep
  24,                                     !- Hour 1
  0,                                      !- Minute 1
  12.8;                                   !- Value Until Time 1

OS:Construction,
  {8c183f57-2f0d-47ea-8f5b-3ecc180292ed}, !- Handle
  INT-FLOOR-TOPSIDE,                      !- Name
  ,                                       !- Surface Rendering Name
  {c771b42b-04d8-4dd6-9edd-6ec4b45bfb65}, !- Layer 1
  {b62445b2-9c72-4a90-96ed-cf0cbc4b4519}, !- Layer 2
  {23f59a67-07d0-46b7-82e4-5717b8a3f737}; !- Layer 3

OS:Material,
  {c771b42b-04d8-4dd6-9edd-6ec4b45bfb65}, !- Handle
  1/2IN Gypsum,                           !- Name
  Smooth,                                 !- Roughness
  0.0127,                                 !- Thickness {m}
  0.1600,                                 !- Conductivity {W/m-K}
  784.9000,                               !- Density {kg/m3}
  830.0000,                               !- Specific Heat {J/kg-K}
  0.9000,                                 !- Thermal Absorptance
  0.9200,                                 !- Solar Absorptance
  0.9200;                                 !- Visible Absorptance

OS:Material,
  {b62445b2-9c72-4a90-96ed-cf0cbc4b4519}, !- Handle
  4IN CONCRETE HW,                        !- Name
  Rough,                                  !- Roughness
  0.1016,                                 !- Thickness {m}
  1.3110,                                 !- Conductivity {W/m-K}
  2240.0000,                              !- Density {kg/m3}
  836.8000,                               !- Specific Heat {J/kg-K}
  0.9000,                                 !- Thermal Absorptance
  0.7000,                                 !- Solar Absorptance
  0.7000;                                 !- Visible Absorptance

OS:Material:NoMass,
  {23f59a67-07d0-46b7-82e4-5717b8a3f737}, !- Handle
  CP02 CARPET PAD,                        !- Name
  VeryRough,                              !- Roughness
  0.2165,                                 !- Thermal Resistance {m2-K/W}
  0.9000,                                 !- Thermal Absorptance
  0.7000,                                 !- Solar Absorptance
  0.8000;                                 !- Visible Absorptance

OS:StandardsInformation:Construction,
  {1a690c0d-b4f9-460a-9ccd-42dfc73516f3}, !- Handle
  {8c183f57-2f0d-47ea-8f5b-3ecc180292ed}, ! Construction Name
  ,                                       ! Intended Surface Type
  Mass,                                   ! Construction Type
  0,                                      ! Perturbable Layer
  Insulation,                             ! Perturbable Layer Type
  ;                                       ! Other Perturbable Layer Type

OS:Construction,
  {29d3dfba-c77d-45f9-8189-cd8c3cee5649}, !- Handle
  INT-FLOOR-UNDERSIDE,                    !- Name
  ,                                       !- Surface Rendering Name
  {23f59a67-07d0-46b7-82e4-5717b8a3f737}, !- Layer 1
  {b62445b2-9c72-4a90-96ed-cf0cbc4b4519}, !- Layer 2
  {c771b42b-04d8-4dd6-9edd-6ec4b45bfb65}; !- Layer 3

OS:StandardsInformation:Construction,
  {69fe38a9-2e67-4b9d-b3d5-aebf8e00bbf9}, !- Handle
  {29d3dfba-c77d-45f9-8189-cd8c3cee5649}, ! Construction Name
  ,                                       ! Intended Surface Type
  Mass,                                   ! Construction Type
  1,                                      ! Perturbable Layer
  Insulation,                             ! Perturbable Layer Type
  ;                                       ! Other Perturbable Layer Type

OS:Construction,
  {7011ff71-6ff4-4129-ab49-ff385d65018b}, !- Handle
  Standard_Int-Wall,                      !- Name
  ,                                       !- Surface Rendering Name
  {c771b42b-04d8-4dd6-9edd-6ec4b45bfb65}, !- Layer 1
  {c771b42b-04d8-4dd6-9edd-6ec4b45bfb65}; !- Layer 2

OS:StandardsInformation:Construction,
  {83322b43-5a65-4670-b3e9-03e37d0a533d}, !- Handle
  {7011ff71-6ff4-4129-ab49-ff385d65018b}, ! Construction Name
  ,                                       ! Intended Surface Type
  Mass,                                   ! Construction Type
  0,                                      ! Perturbable Layer
  Insulation,                             ! Perturbable Layer Type
  ;                                       ! Other Perturbable Layer Type

OS:DefaultSurfaceConstructions,
  {2b179f2c-df28-4619-9da1-e30ce5a508db}, !- Handle
  Default Surface Constructions 1,        !- Name
  {8c183f57-2f0d-47ea-8f5b-3ecc180292ed}, !- Floor Construction Name
  {7011ff71-6ff4-4129-ab49-ff385d65018b}, !- Wall Construction Name
  {29d3dfba-c77d-45f9-8189-cd8c3cee5649}; !- Roof Ceiling Construction Name

OS:DefaultConstructionSet,
  {99eebc82-41bc-41ef-bd7a-0074182fdb7e}, !- Handle
  Default Construction Set 1,             !- Name
  ,                                       !- Default Exterior Surface Constructions Name
  {2b179f2c-df28-4619-9da1-e30ce5a508db}, !- Default Interior Surface Constructions Name
  ,                                       !- Default Ground Contact Surface Constructions Name
  ,                                       !- Default Exterior SubSurface Constructions Name
  ,                                       !- Default Interior SubSurface Constructions Name
  ,                                       !- Interior Partition Construction Name
  ,                                       !- Space Shading Construction Name
  ,                                       !- Building Shading Construction Name
  ;                                       !- Site Shading Construction Name

OS:Building,
  {ad9c6df2-965f-47a4-aec1-36c48a919079}, !- Handle
  Building 1,                             !- Name
  ,                                       !- Building Type
  ,                                       !- North Axis {deg}
  ,                                       !- Nominal Floor to Floor Height {m}
  ,                                       !- Space Type Name
  {99eebc82-41bc-41ef-bd7a-0074182fdb7e}, !- Default Construction Set Name
  ;                                       !- Default Schedule Set Name

! Exterior Walls: taken from DOE New Small Office Ref Bldg
OS:Construction,
  {1ad9378b-7165-4528-9387-2ce083518819}, !- Handle
  Masonry_Wall,                           !- Name
  ,                                       !- Surface Rendering Name
  {dbb754e1-627a-4a78-b6f0-27eaa5bb55c3}, !- Layer 1
  {c3db218a-814f-4bc5-a177-533d1c3b3b10}, !- Layer 2
  {0640633f-a4e2-4883-8343-b76fb4172ad0}, !- Layer 3
  {c771b42b-04d8-4dd6-9edd-6ec4b45bfb65}; !- Layer 4

OS:Material,
  {dbb754e1-627a-4a78-b6f0-27eaa5bb55c3}, !- Handle
  1IN Stucco,                             !- Name
  Smooth,                                 !- Roughness
  0.0253,                                 !- Thickness {m}
  0.6918,                                 !- Conductivity {W/m-K}
  1858.0000,                              !- Density {kg/m3}
  837.0000,                               !- Specific Heat {J/kg-K}
  0.9000,                                 !- Thermal Absorptance
  0.9200,                                 !- Solar Absorptance
  0.9200;                                 !- Visible Absorptance

OS:Material,
  {c3db218a-814f-4bc5-a177-533d1c3b3b10}, !- Handle
  8IN CONCRETE HW,                        !- Name
  Rough,                                  !- Roughness
  0.2032,                                 !- Thickness {m}
  1.3110,                                 !- Conductivity {W/m-K}
  2240.0000,                              !- Density {kg/m3}
  836.8000,                               !- Specific Heat {J/kg-K}
  0.9000,                                 !- Thermal Absorptance
  0.7000,                                 !- Solar Absorptance
  0.7000;                                 !- Visible Absorptance

OS:Material,
  {0640633f-a4e2-4883-8343-b76fb4172ad0}, !- Handle
  Masonry Wall Insulation,                !- Name
  MediumRough,                            !- Roughness
  0.0527936428045336,                     !- Thickness {m}
  0.049,                                  !- Conductivity {W/m-K}
  265.0000,                               !- Density {kg/m3}
  836.8000,                               !- Specific Heat {J/kg-K}
  0.9000,                                 !- Thermal Absorptance
  0.7000,                                 !- Solar Absorptance
  0.7000;                                 !- Visible Absorptance

OS:StandardsInformation:Construction,
  {a78677e6-9150-4aba-a84d-f54739cc18d0}, !- Handle
  {1ad9378b-7165-4528-9387-2ce083518819}, ! Construction Name
  ,                                       ! Intended Surface Type
  Mass,                                   ! Construction Type
  2,                                      ! Perturbable Layer
  Insulation,                             ! Perturbable Layer Type
  ;                                       ! Other Perturbable Layer Type

! Roof from DOE reference building new warehouse
OS:Construction,
  {54831d4b-3704-4672-a755-739cce15e9d9}, !- Handle
  Metal_Building_Roof,                    !- Name
  ,                                       !- Surface Rendering Name
  {5160eb7b-1168-46aa-9de4-2ebb2f1f5b46}, !- Layer 1
  {c146bd19-1721-4d9c-ae2a-23d864226d55}; !- Layer 2

OS:Material,
  {5160eb7b-1168-46aa-9de4-2ebb2f1f5b46}, !- Handle
  Metal Roofing,                          !- Name
  MediumSmooth,                           !- Roughness
  0.0015,                                 !- Thickness {m}
  45.0060,                                !- Conductivity {W/m-K}
  7680.0000,                              !- Density {kg/m3}
  418.4000,                               !- Specific Heat {J/kg-K}
  0.9000,                                 !- Thermal Absorptance
  0.7000,                                 !- Solar Absorptance
  0.3000;                                 !- Visible Absorptance

OS:Material,
  {c146bd19-1721-4d9c-ae2a-23d864226d55}, !- Handle
  Metal Building Roof Insulation,         !- Name
  MediumRough,                            !- Roughness
  0.199510188645757,                      !- Thickness {m}
  0.049,                                  !- Conductivity {W/m-K}
  265.0000,                               !- Density {kg/m3}
  836.8000,                               !- Specific Heat {J/kg-K}
  0.9000,                                 !- Thermal Absorptance
  0.7000,                                 !- Solar Absorptance
  0.7000;                                 !- Visible Absorptance

OS:StandardsInformation:Construction,
  {f8c2e59c-9566-42f8-bed3-f500ad4707c7}, !- Handle
  {54831d4b-3704-4672-a755-739cce15e9d9}, ! Construction Name
  ,                                       ! Intended Surface Type
  Metal-Building,                         ! Construction Type
  1,                                      ! Perturbable Layer
  Insulation,                             ! Perturbable Layer Type
  ;                                       ! Other Perturbable Layer Type

OS:Construction,
  {f65554f7-db6e-481f-8d46-bcce3ea471c9}, !- Handle
  Insul_slab,                             !- Name
  ,                                       !- Surface Rendering Name
  {a3ceaabe-cff8-47bd-9dc3-e0dedf2cb3de}, !- Layer 1
  {f00b7508-8a73-436e-85c8-736737663309}; !- Layer 2

OS:Material,
  {a3ceaabe-cff8-47bd-9dc3-e0dedf2cb3de}, !- Handle
  Floor Insulation,                       !- Name
  MediumRough,                            !- Roughness
  0.0795,                                 !- Thickness {m}
  0.0450,                                 !- Conductivity {W/m-K}
  265.0000,                               !- Density {kg/m3}
  836.8000,                               !- Specific Heat {J/kg-K}
  0.9000,                                 !- Thermal Absorptance
  0.7000,                                 !- Solar Absorptance
  0.7000;                                 !- Visible Absorptance

OS:Material,
  {f00b7508-8a73-436e-85c8-736737663309}, !- Handle
  MAT-CC05 8 HW CONCRETE,                 !- Name
  Rough,                                  !- Roughness
  0.2032,                                 !- Thickness {m}
  1.3110,                                 !- Conductivity {W/m-K}
  2240.0000,                              !- Density {kg/m3}
  836.8000,                               !- Specific Heat {J/kg-K}
  0.9000,                                 !- Thermal Absorptance
  0.7000,                                 !- Solar Absorptance
  0.7000;                                 !- Visible Absorptance

OS:StandardsInformation:Construction,
  {9736eb02-6566-44cb-b736-1750d9ac248b}, !- Handle
  {f65554f7-db6e-481f-8d46-bcce3ea471c9}, ! Construction Name
  ,                                       ! Intended Surface Type
  Exterior Floor:Slab,                    ! Construction Type
  0,                                      ! Perturbable Layer
  Insulation,                             ! Perturbable Layer Type
  ;                                       ! Other Perturbable Layer Type

OS:WindowMaterial:SimpleGlazingSystem,
  {5c1201de-71dc-4add-9a7b-edb285c74943}, !- Handle
  Glazing Layer,                          !- Name
  4.14513209830427,                       !- U-Factor {W/m2-K}
  0.7308,                                 !- Solar Heat Gain Coefficient
  0.7;                                    !- Visible Transmittance

OS:Construction,
  {0ab16373-e8aa-4634-abb7-3e3589203a77}, !- Handle
  fenestration___,                        !- Name
  ,                                       !- Surface Rendering Name
  {5c1201de-71dc-4add-9a7b-edb285c74943}; !- Layer 1

OS:PlantLoop,
  {69595ea3-deb5-42eb-9ce9-338549226868}, !- Handle
  SWPlant 40,                             !- Name
  ,                                       !- Fluid Type
  ,                                       !- User Defined Fluid Type
  ,                                       !- Plant Equipment Operation Scheme Name
  {cec8cb9a-a983-4b9a-b241-034422d05e6d}, !- Loop Temperature Setpoint Node Name
  ,                                       !- Maximum Loop Temperature {C}
  ,                                       !- Minimum Loop Temperature {C}
  ,                                       !- Maximum Loop Flow Rate {m3/s}
  ,                                       !- Minimum Loop Flow Rate {m3/s}
  Autocalculate,                          !- Plant Loop Volume {m3}
  {7829532d-fc10-4ff1-a6c8-468a671ff592}, !- Plant Side Inlet Node Name
  {b2ac4d0d-ba59-406b-9d85-6d1322f725d8}, !- Plant Side Outlet Node Name
  ,                                       !- Plant Side Branch List Name
  {b2a6e746-3faf-41e2-ae56-76726fc1b7ec}, !- Demand Side Inlet Node Name
  {8b26c4fd-8a6a-41c2-8f5b-fcea695c63c8}, !- Demand Side Outlet Node Name
  ,                                       !- Demand Side Branch List Name
  ,                                       !- Demand Side Connector List Name
  ,                                       !- Load Distribution Scheme
  ,                                       !- Availability Manager List Name
  ,                                       !- Plant Loop Demand Calculation Scheme
  ,                                       !- Common Pipe Simulation
  ;                                       !- Pressure Simulation Type

OS:Sizing:Plant,
  {41a712d3-4926-423a-91b0-735b9721d3f1}, !- Handle
  {69595ea3-deb5-42eb-9ce9-338549226868}, !- Plant or Condenser Loop Name
  Heating,                                !- Loop Type
  60,                                     !- Design Loop Exit Temperature {C}
  5;                                      !- Loop Design Temperature Difference {deltaC}

OS:Node,
  {45d99608-cc63-422c-928f-7704b0fcdf16}, !- Handle
  Node 1,                                 !- Name
  {7829532d-fc10-4ff1-a6c8-468a671ff592}, !- Inlet Port
  {b1fa445f-cf48-4b12-95eb-a81a3dd5a86f}; !- Outlet Port

OS:Node,
  {cec8cb9a-a983-4b9a-b241-034422d05e6d}, !- Handle
  Node 2,                                 !- Name
  {a1c5ffa0-14a7-4dd7-b58c-4e842bf96e34}, !- Inlet Port
  {b2ac4d0d-ba59-406b-9d85-6d1322f725d8}; !- Outlet Port

OS:Node,
  {29cc6e06-a1dc-489a-ad71-21b991d3fc06}, !- Handle
  Node 3,                                 !- Name
  {3512dc03-f160-42a9-9076-510805cd01ab}, !- Inlet Port
  {1260bbac-8b61-4028-adc4-714abbbae584}; !- Outlet Port

OS:Connector:Mixer,
  {320063bd-ccdb-4573-8c99-8afcea52c72b}, !- Handle
  Connector Mixer 1,                      !- Name
  {a1c5ffa0-14a7-4dd7-b58c-4e842bf96e34}, !- Outlet Branch Name
  {eac83bff-723d-4724-9d64-dde2a0d72ea1}; !- Inlet Branch Name 1

OS:Connector:Splitter,
  {b4fd76cb-0ae4-47a5-894c-6afd0e2adb41}, !- Handle
  Connector Splitter 1,                   !- Name
  {9630ec18-afc7-4350-b764-8fb7a95d3b06}, !- Inlet Branch Name
  {3512dc03-f160-42a9-9076-510805cd01ab}; !- Outlet Branch Name 1

OS:Connection,
  {7829532d-fc10-4ff1-a6c8-468a671ff592}, !- Handle
  Connection 1,                           !- Name
  {69595ea3-deb5-42eb-9ce9-338549226868}, !- Source Object
  11,                                     !- Outlet Port
  {45d99608-cc63-422c-928f-7704b0fcdf16}, !- Target Object
  2;                                      !- Inlet Port

OS:Connection,
  {3512dc03-f160-42a9-9076-510805cd01ab}, !- Handle
  Connection 3,                           !- Name
  {b4fd76cb-0ae4-47a5-894c-6afd0e2adb41}, !- Source Object
  3,                                      !- Outlet Port
  {29cc6e06-a1dc-489a-ad71-21b991d3fc06}, !- Target Object
  2;                                      !- Inlet Port

OS:Connection,
  {a1c5ffa0-14a7-4dd7-b58c-4e842bf96e34}, !- Handle
  Connection 5,                           !- Name
  {320063bd-ccdb-4573-8c99-8afcea52c72b}, !- Source Object
  2,                                      !- Outlet Port
  {cec8cb9a-a983-4b9a-b241-034422d05e6d}, !- Target Object
  2;                                      !- Inlet Port

OS:Connection,
  {b2ac4d0d-ba59-406b-9d85-6d1322f725d8}, !- Handle
  Connection 6,                           !- Name
  {cec8cb9a-a983-4b9a-b241-034422d05e6d}, !- Source Object
  3,                                      !- Outlet Port
  {69595ea3-deb5-42eb-9ce9-338549226868}, !- Target Object
  12;                                     !- Inlet Port

OS:Node,
  {1faf8244-cbab-43de-9119-e6204b515c9e}, !- Handle
  Node 4,                                 !- Name
  {b2a6e746-3faf-41e2-ae56-76726fc1b7ec}, !- Inlet Port
  {abaf857e-8d85-4665-bc39-96f3ce29c7da}; !- Outlet Port

OS:Node,
  {7fdd2c30-2e3d-4a68-93f3-938f20e2b955}, !- Handle
  Node 5,                                 !- Name
  {c409f88d-acb7-4c58-be3e-18e10dd65883}, !- Inlet Port
  {8b26c4fd-8a6a-41c2-8f5b-fcea695c63c8}; !- Outlet Port

OS:Node,
  {db2ef5f2-6b1d-4c20-bd24-73d74dc06458}, !- Handle
  Node 6,                                 !- Name
  {5c0cc679-4050-4a80-8213-cbb68806da29}, !- Inlet Port
  {d54b89cb-ba9b-4cb7-a7ff-9de8b346a50c}; !- Outlet Port

OS:Connector:Mixer,
  {7567b0c0-7695-4d86-b945-62a399a30206}, !- Handle
  Connector Mixer 2,                      !- Name
  {c409f88d-acb7-4c58-be3e-18e10dd65883}, !- Outlet Branch Name
  {1046fb5c-4656-491b-822f-072e23eab27a}; !- Inlet Branch Name 1

OS:Connector:Splitter,
  {8f001d1f-c6d2-48c7-b922-888f54b4e97f}, !- Handle
  Connector Splitter 2,                   !- Name
  {abaf857e-8d85-4665-bc39-96f3ce29c7da}, !- Inlet Branch Name
  {5c0cc679-4050-4a80-8213-cbb68806da29}; !- Outlet Branch Name 1

OS:Connection,
  {b2a6e746-3faf-41e2-ae56-76726fc1b7ec}, !- Handle
  Connection 7,                           !- Name
  {69595ea3-deb5-42eb-9ce9-338549226868}, !- Source Object
  14,                                     !- Outlet Port
  {1faf8244-cbab-43de-9119-e6204b515c9e}, !- Target Object
  2;                                      !- Inlet Port

OS:Connection,
  {abaf857e-8d85-4665-bc39-96f3ce29c7da}, !- Handle
  Connection 8,                           !- Name
  {1faf8244-cbab-43de-9119-e6204b515c9e}, !- Source Object
  3,                                      !- Outlet Port
  {8f001d1f-c6d2-48c7-b922-888f54b4e97f}, !- Target Object
  2;                                      !- Inlet Port

OS:Connection,
  {5c0cc679-4050-4a80-8213-cbb68806da29}, !- Handle
  Connection 9,                           !- Name
  {8f001d1f-c6d2-48c7-b922-888f54b4e97f}, !- Source Object
  3,                                      !- Outlet Port
  {db2ef5f2-6b1d-4c20-bd24-73d74dc06458}, !- Target Object
  2;                                      !- Inlet Port

OS:Connection,
  {c409f88d-acb7-4c58-be3e-18e10dd65883}, !- Handle
  Connection 11,                          !- Name
  {7567b0c0-7695-4d86-b945-62a399a30206}, !- Source Object
  2,                                      !- Outlet Port
  {7fdd2c30-2e3d-4a68-93f3-938f20e2b955}, !- Target Object
  2;                                      !- Inlet Port

OS:Connection,
  {8b26c4fd-8a6a-41c2-8f5b-fcea695c63c8}, !- Handle
  Connection 12,                          !- Name
  {7fdd2c30-2e3d-4a68-93f3-938f20e2b955}, !- Source Object
  3,                                      !- Outlet Port
  {69595ea3-deb5-42eb-9ce9-338549226868}, !- Target Object
  15;                                     !- Inlet Port

OS:Pump:VariableSpeed,
  {155f536a-bd10-47bf-b7db-53f6e1824c56}, !- Handle
  SHW: Pump for Service Hot Water,        !- Name
  {b1fa445f-cf48-4b12-95eb-a81a3dd5a86f}, !- Inlet Node Name
  {81c3893c-955f-4583-8930-fb8d9410ecfa}, !- Outlet Node Name
  ,                                       !- Rated Flow Rate {m3/s}
  ,                                       !- Rated Pump Head {Pa}
  ,                                       !- Rated Power Consumption {W}
  ,                                       !- Motor Efficiency
  ,                                       !- Fraction of Motor Inefficiencies to Fluid Stream
  ,                                       !- Coefficient 1 of the Part Load Performance Curve
  ,                                       !- Coefficient 2 of the Part Load Performance Curve
  ,                                       !- Coefficient 3 of the Part Load Performance Curve
  ,                                       !- Coefficient 4 of the Part Load Performance Curve
  ,                                       !- Minimum Flow Rate {m3/s}
  Intermittent;                           !- Pump Control Type

OS:Node,
  {89a93349-eb8f-4a50-ad76-29dbad241657}, !- Handle
  Node 7,                                 !- Name
  {81c3893c-955f-4583-8930-fb8d9410ecfa}, !- Inlet Port