
OS:Version,
  {0670ed77-5d77-4e3c-9ede-32f7536cfd24}, !- Handle
  1.0.6;                                  !- Version Identifier

OS:Schedule:Ruleset,
  {9bb06237-b61a-4805-a4ae-2a89d346f12d}, !- Handle
  Always_On,                              !- Name
  {58482148-369b-41d3-bde9-fe6d629e3ace}, !- Schedule Type Limits Name
  {d2b0e400-5581-4b98-82bf-7d0c147e1cd8}, !- Default Day Schedule Name
  {ff191903-b904-4e32-b376-b25768f87eed}, !- Summer Design Day Schedule Name
  {120f321f-627c-4b3b-87fd-ffc47df88bd1}; !- Winter Design Day Schedule Name

OS:Schedule:Day,
  {d2b0e400-5581-4b98-82bf-7d0c147e1cd8}, !- Handle
  Always_On_Default,                      !- Name
  {58482148-369b-41d3-bde9-fe6d629e3ace}, !- Schedule Type Limits Name
  ,                                       !- Interpolate to Timestep
  24,                                     !- Hour 1
  0,                                      !- Minute 1
  1;                                      !- Value Until Time 1

OS:Schedule:Day,
  {973590db-a377-4305-a53f-8fcfee24c121}, !- Handle
  Schedule Day 2,                         !- Name
  ,                                       !- Schedule Type Limits Name
  ,                                       !- Interpolate to Timestep
  24,                                     !- Hour 1
  0,                                      !- Minute 1
  0;                                      !- Value Until Time 1

OS:Schedule:Day,
  {120f321f-627c-4b3b-87fd-ffc47df88bd1}, !- Handle
  Always_On_Winter_Design_Day,            !- Name
  {58482148-369b-41d3-bde9-fe6d629e3ace}, !- Schedule Type Limits Name
  ,                                       !- Interpolate to Timestep
  24,                                     !- Hour 1
  0,                                      !- Minute 1
  1;                                      !- Value Until Time 1

OS:Schedule:Day,
  {57058806-524b-476e-a07c-8542ba557969}, !- Handle
  Schedule Day 3,                         !- Name
  ,                                       !- Schedule Type Limits Name
  ,                                       !- Interpolate to Timestep
  24,                                     !- Hour 1
  0,                                      !- Minute 1
  0;                                      !- Value Until Time 1

OS:Schedule:Day,
  {ff191903-b904-4e32-b376-b25768f87eed}, !- Handle
  Always_On_Summer_Design_Day,            !- Name
  {58482148-369b-41d3-bde9-fe6d629e3ace}, !- Schedule Type Limits Name
  ,                                       !- Interpolate to Timestep
  24,                                     !- Hour 1
  0,                                      !- Minute 1
  1;                                      !- Value Until Time 1

OS:Schedule:Ruleset,
  {6e883edd-7185-436f-9346-dab2fff4bbe7}, !- Handle
  Always_Off,                             !- Name
  ,                                       !- Schedule Type Limits Name
  {3963df22-bdf1-4dee-a2e6-fca9686c1507}, !- Default Day Schedule Name
  {c54496f5-5734-4818-bbd8-d9f464aba4fd}, !- Summer Design Day Schedule Name
  {e1e70260-fad3-4961-9acf-3f8bde8c7d97}; !- Winter Design Day Schedule Name

OS:Schedule:Day,
  {3963df22-bdf1-4dee-a2e6-fca9686c1507}, !- Handle
  Always_Off_Default,                     !- Name
  ,                                       !- Schedule Type Limits Name
  ,                                       !- Interpolate to Timestep
  24,                                     !- Hour 1
  0,                                      !- Minute 1
  0;                                      !- Value Until Time 1

OS:Schedule:Day,
  {9b281c99-dbd8-42c2-bce9-375678010270}, !- Handle
  Schedule Day 4,                         !- Name
  ,                                       !- Schedule Type Limits Name
  ,                                       !- Interpolate to Timestep
  24,                                     !- Hour 1
  0,                                      !- Minute 1
  0;                                      !- Value Until Time 1

OS:Schedule:Day,
  {e1e70260-fad3-4961-9acf-3f8bde8c7d97}, !- Handle
  Always_Off_Winter_Design_Day,           !- Name
  ,                                       !- Schedule Type Limits Name
  ,                                       !- Interpolate to Timestep
  24,                                     !- Hour 1
  0,                                      !- Minute 1
  0;                                      !- Value Until Time 1

OS:Schedule:Day,
  {d1b5787c-7261-4775-857d-57d36e1e7bb1}, !- Handle
  Schedule Day 5,                         !- Name
  ,                                       !- Schedule Type Limits Name
  ,                                       !- Interpolate to Timestep
  24,                                     !- Hour 1
  0,                                      !- Minute 1
  0;                                      !- Value Until Time 1

OS:Schedule:Day,
  {c54496f5-5734-4818-bbd8-d9f464aba4fd}, !- Handle
  Always_Off_Summer_Design_Day,           !- Name
  ,                                       !- Schedule Type Limits Name
  ,                                       !- Interpolate to Timestep
  24,                                     !- Hour 1
  0,                                      !- Minute 1
  0;                                      !- Value Until Time 1

OS:Schedule:Ruleset,
  {2cb863b5-e612-49ec-b6e7-af1b352d225c}, !- Handle
  Deck_Temperature,                       !- Name
  {3071f1f2-8188-4a94-b2a2-8b864b374ee8}, !- Schedule Type Limits Name
  {73feab46-a8c1-4294-8628-0b7c5fd5f0ee}, !- Default Day Schedule Name
  {9c85339e-5450-44de-b799-0fb7932e6bfb}, !- Summer Design Day Schedule Name
  {4c53c3ac-1bf3-4560-8e83-2de7c0b04006}; !- Winter Design Day Schedule Name

OS:Schedule:Day,
  {73feab46-a8c1-4294-8628-0b7c5fd5f0ee}, !- Handle
  Deck_Temperature_Default,               !- Name
  {3071f1f2-8188-4a94-b2a2-8b864b374ee8}, !- Schedule Type Limits Name
  ,                                       !- Interpolate to Timestep
  24,                                     !- Hour 1
  0,                                      !- Minute 1
  12.8;                                   !- Value Until Time 1

OS:Schedule:Day,
  {6908f7f4-c19c-4b02-8bf2-0a409a0b46c1}, !- Handle
  Schedule Day 6,                         !- Name
  ,                                       !- Schedule Type Limits Name
  ,                                       !- Interpolate to Timestep
  24,                                     !- Hour 1
  0,                                      !- Minute 1
  0;                                      !- Value Until Time 1

OS:Schedule:Day,
  {4c53c3ac-1bf3-4560-8e83-2de7c0b04006}, !- Handle
  Deck_Temperature_Winter_Design_Day,     !- Name
  {3071f1f2-8188-4a94-b2a2-8b864b374ee8}, !- Schedule Type Limits Name
  ,                                       !- Interpolate to Timestep
  24,                                     !- Hour 1
  0,                                      !- Minute 1
  12.8;                                   !- Value Until Time 1

OS:Schedule:Day,
  {0aff3c3b-b727-4ca2-b508-3287bbe498ac}, !- Handle
  Schedule Day 7,                         !- Name
  ,                                       !- Schedule Type Limits Name
  ,                                       !- Interpolate to Timestep
  24,                                     !- Hour 1
  0,                                      !- Minute 1
  0;                                      !- Value Until Time 1

OS:Schedule:Day,
  {9c85339e-5450-44de-b799-0fb7932e6bfb}, !- Handle
  Deck_Temperature_Summer_Design_Day,     !- Name
  {3071f1f2-8188-4a94-b2a2-8b864b374ee8}, !- Schedule Type Limits Name
  ,                                       !- Interpolate to Timestep
  24,                                     !- Hour 1
  0,                                      !- Minute 1
  12.8;                                   !- Value Until Time 1

OS:Construction,
  {e8b7617e-478a-4eaf-bb6e-390447779fab}, !- Handle
  INT-FLOOR-TOPSIDE,                      !- Name
  {20976eda-7daf-42db-bfb1-d6bb9be98aad}, !- Surface Rendering Name
  {1f090dc0-3cad-4d30-8820-0fcfe2f5d01c}, !- Layer 1
  {6d14f245-4b81-4236-bbc0-52ddcbaf0650}, !- Layer 2
  {ff370bc1-20b5-48ce-867d-d486c0899eb3}; !- Layer 3

OS:Material,
  {1f090dc0-3cad-4d30-8820-0fcfe2f5d01c}, !- Handle
  1/2IN Gypsum,                           !- Name
  Smooth,                                 !- Roughness
  0.0127,                                 !- Thickness {m}
  0.1600,                                 !- Conductivity {W/m-K}
  784.9000,                               !- Density {kg/m3}
  830.0000,                               !- Specific Heat {J/kg-K}
  0.9000,                                 !- Thermal Absorptance
  0.9200,                                 !- Solar Absorptance
  0.9200;                                 !- Visible Absorptance

OS:Material,
  {6d14f245-4b81-4236-bbc0-52ddcbaf0650}, !- Handle
  4IN CONCRETE HW,                        !- Name
  Rough,                                  !- Roughness
  0.1016,                                 !- Thickness {m}
  1.3110,                                 !- Conductivity {W/m-K}
  2240.0000,                              !- Density {kg/m3}
  836.8000,                               !- Specific Heat {J/kg-K}
  0.9000,                                 !- Thermal Absorptance
  0.7000,                                 !- Solar Absorptance
  0.7000;                                 !- Visible Absorptance

OS:Material:NoMass,
  {ff370bc1-20b5-48ce-867d-d486c0899eb3}, !- Handle
  CP02 CARPET PAD,                        !- Name
  VeryRough,                              !- Roughness
  0.2165,                                 !- Thermal Resistance {m2-K/W}
  0.9000,                                 !- Thermal Absorptance
  0.7000,                                 !- Solar Absorptance
  0.8000;                                 !- Visible Absorptance

OS:StandardsInformation:Construction,
  {b797ed9a-5181-4367-ae0b-d564c8861d44}, !- Handle
  {e8b7617e-478a-4eaf-bb6e-390447779fab}, ! Construction Name
  ,                                       ! Intended Surface Type
  Mass,                                   ! Construction Type
  0,                                      ! Perturbable Layer
  Insulation,                             ! Perturbable Layer Type
  ;                                       ! Other Perturbable Layer Type

OS:Construction,
  {d680cde7-fac0-4fcd-a664-955a3b1e182f}, !- Handle
  INT-FLOOR-UNDERSIDE,                    !- Name
  {a729f526-4f5a-431f-8153-50eb5d78626e}, !- Surface Rendering Name
  {ff370bc1-20b5-48ce-867d-d486c0899eb3}, !- Layer 1
  {6d14f245-4b81-4236-bbc0-52ddcbaf0650}, !- Layer 2
  {1f090dc0-3cad-4d30-8820-0fcfe2f5d01c}; !- Layer 3

OS:StandardsInformation:Construction,
  {98873052-680b-4c44-904f-d039b5b1c908}, !- Handle
  {d680cde7-fac0-4fcd-a664-955a3b1e182f}, ! Construction Name
  ,                                       ! Intended Surface Type
  Mass,                                   ! Construction Type
  1,                                      ! Perturbable Layer
  Insulation,                             ! Perturbable Layer Type
  ;                                       ! Other Perturbable Layer Type

OS:Construction,
  {b83f4e3c-7282-45ca-97f0-e0cdec70aaf5}, !- Handle
  Standard_Int-Wall,                      !- Name
  {a8eddf3e-5afb-4a3e-8135-202668d46370}, !- Surface Rendering Name
  {1f090dc0-3cad-4d30-8820-0fcfe2f5d01c}, !- Layer 1
  {1f090dc0-3cad-4d30-8820-0fcfe2f5d01c}; !- Layer 2

OS:StandardsInformation:Construction,
  {5782e127-c6a6-49fb-88ab-74050624f63d}, !- Handle
  {b83f4e3c-7282-45ca-97f0-e0cdec70aaf5}, ! Construction Name
  ,                                       ! Intended Surface Type
  Mass,                                   ! Construction Type
  0,                                      ! Perturbable Layer
  Insulation,                             ! Perturbable Layer Type
  ;                                       ! Other Perturbable Layer Type

OS:DefaultSurfaceConstructions,
  {dfd25ffc-01ff-449e-877f-933ce28d9a45}, !- Handle
  Default Surface Constructions 1,        !- Name
  {e8b7617e-478a-4eaf-bb6e-390447779fab}, !- Floor Construction Name
  {b83f4e3c-7282-45ca-97f0-e0cdec70aaf5}, !- Wall Construction Name
  {d680cde7-fac0-4fcd-a664-955a3b1e182f}; !- Roof Ceiling Construction Name

OS:DefaultConstructionSet,
  {f7f08386-5033-4d58-8dc9-6e70f3e3d753}, !- Handle
  Default Construction Set 1,             !- Name
  ,                                       !- Default Exterior Surface Constructions Name
  {dfd25ffc-01ff-449e-877f-933ce28d9a45}, !- Default Interior Surface Constructions Name
  ,                                       !- Default Ground Contact Surface Constructions Name
  ,                                       !- Default Exterior SubSurface Constructions Name
  ,                                       !- Default Interior SubSurface Constructions Name
  ,                                       !- Interior Partition Construction Name
  ,                                       !- Space Shading Construction Name
  ,                                       !- Building Shading Construction Name
  ;                                       !- Site Shading Construction Name

OS:Building,
  {f8ae8349-4bab-4be6-86b5-19d7fde6597c}, !- Handle
  Building 1,                             !- Name
  ,                                       !- Building Type
  ,                                       !- North Axis {deg}
  ,                                       !- Nominal Floor to Floor Height {m}
  ,                                       !- Space Type Name
  {f7f08386-5033-4d58-8dc9-6e70f3e3d753}, !- Default Construction Set Name
  ;                                       !- Default Schedule Set Name

! Exterior Walls
OS:Construction,
  {a3874f52-55d8-4e80-9b44-d9a6aeac8f25}, !- Handle
  Masonry_Steel_Frame_Wall,               !- Name
  {db5d19a3-214c-4d6d-973b-5e4ecc6e0f7d}, !- Surface Rendering Name
  {29f6272f-25a0-482f-b833-17ba3c55f7fa}, !- Layer 1
  {d3831176-56c7-437c-a3e5-c15d97685848}, !- Layer 2
  {1f090dc0-3cad-4d30-8820-0fcfe2f5d01c}; !- Layer 3

OS:Material,
  {29f6272f-25a0-482f-b833-17ba3c55f7fa}, !- Handle
  M01 100mm brick,                        !- Name
  MediumRough,                            !- Roughness
  0.1016,                                 !- Thickness {m}
  0.89,                                   !- Conductivity {W/m-K}
  1920,                                   !- Density {kg/m3}
  790,                                    !- Specific Heat {J/kg-K}
  0.9000,                                 !- Thermal Absorptance
  0.700,                                  !- Solar Absorptance
  0.700;                                  !- Visible Absorptance

OS:Material,
  {d3831176-56c7-437c-a3e5-c15d97685848}, !- Handle
  Steel Frame Wall Insulation,            !- Name
  MediumRough,                            !- Roughness
  0.163104904939705,                      !- Thickness {m}
  0.049,                                  !- Conductivity {W/m-K}
  265.0000,                               !- Density {kg/m3}
  836.8000,                               !- Specific Heat {J/kg-K}
  0.9000,                                 !- Thermal Absorptance
  0.7000,                                 !- Solar Absorptance
  0.7000;                                 !- Visible Absorptance

OS:StandardsInformation:Construction,
  {1be96dbc-7d3a-4729-bd7b-0b02456cd999}, !- Handle
  {a3874f52-55d8-4e80-9b44-d9a6aeac8f25}, ! Construction Name
  ,                                       ! Intended Surface Type
  Steel-Framed,                           ! Construction Type
  1,                                      ! Perturbable Layer
  Insulation,                             ! Perturbable Layer Type
  ;                                       ! Other Perturbable Layer Type

! Roof from DOE reference building new warehouse
OS:Construction,
  {7ede8472-945c-4acd-8a36-392faa525cf2}, !- Handle
  Shingles_Shakes_Roof,                   !- Name
  {1cd39d5c-e891-4399-a493-e8057532d847}, !- Surface Rendering Name
  {4152fc17-9bdc-4829-bbb3-47fc683496fc}, !- Layer 1
  {11d6f865-4444-4157-9327-c3fde98767bb}, !- Layer 2
  {1f090dc0-3cad-4d30-8820-0fcfe2f5d01c}; !- Layer 3

OS:Material,
  {4152fc17-9bdc-4829-bbb3-47fc683496fc}, !- Handle
  Metal Roofing,                          !- Name
  MediumSmooth,                           !- Roughness
  0.0015,                                 !- Thickness {m}
  45.0060,                                !- Conductivity {W/m-K}
  7680.0000,                              !- Density {kg/m3}
  418.4000,                               !- Specific Heat {J/kg-K}
  0.9000,                                 !- Thermal Absorptance
  0.7000,                                 !- Solar Absorptance
  0.3000;                                 !- Visible Absorptance

OS:Material,
  {11d6f865-4444-4157-9327-c3fde98767bb}, !- Handle
  Attic and Other Insulation,             !- Name
  MediumRough,                            !- Roughness
  0.211843984677261,                      !- Thickness {m}
  0.049,                                  !- Conductivity {W/m-K}
  265.0000,                               !- Density {kg/m3}
  836.8000,                               !- Specific Heat {J/kg-K}
  0.9000,                                 !- Thermal Absorptance
  0.7000,                                 !- Solar Absorptance
  0.7000;                                 !- Visible Absorptance

OS:StandardsInformation:Construction,
  {fdc2c2a6-c8ad-41ed-a132-74adfcd51e13}, !- Handle
  {7ede8472-945c-4acd-8a36-392faa525cf2}, ! Construction Name
  ,                                       ! Intended Surface Type
  Attic and Other,                        ! Construction Type
  1,                                      ! Perturbable Layer
  Insulation,                             ! Perturbable Layer Type
  ;                                       ! Other Perturbable Layer Type

OS:Construction,
  {c454a2ea-f885-4ec3-8e8d-bfb4b016d136}, !- Handle
  Insul_slab,                             !- Name
  {140337f1-c7aa-4857-b722-515d6c34e4c9}, !- Surface Rendering Name
  {410b7057-2e2e-422e-b42d-c4c3bd534d55}, !- Layer 1
  {0b260dd7-8989-4443-b4b5-e1eae33d9f00}; !- Layer 2

OS:Material,
  {410b7057-2e2e-422e-b42d-c4c3bd534d55}, !- Handle
  Floor Insulation,                       !- Name
  MediumRough,                            !- Roughness
  0.0795,                                 !- Thickness {m}
  0.0450,                                 !- Conductivity {W/m-K}
  265.0000,                               !- Density {kg/m3}
  836.8000,                               !- Specific Heat {J/kg-K}
  0.9000,                                 !- Thermal Absorptance
  0.7000,                                 !- Solar Absorptance
  0.7000;                                 !- Visible Absorptance

OS:Material,
  {0b260dd7-8989-4443-b4b5-e1eae33d9f00}, !- Handle
  MAT-CC05 8 HW CONCRETE,                 !- Name
  Rough,                                  !- Roughness
  0.2032,                                 !- Thickness {m}
  1.3110,                                 !- Conductivity {W/m-K}
  2240.0000,                              !- Density {kg/m3}
  836.8000,                               !- Specific Heat {J/kg-K}
  0.9000,                                 !- Thermal Absorptance
  0.7000,                                 !- Solar Absorptance
  0.7000;                                 !- Visible Absorptance

OS:StandardsInformation:Construction,
  {cdfe48d3-c42f-4ac9-b8d7-2681b3a793a1}, !- Handle
  {c454a2ea-f885-4ec3-8e8d-bfb4b016d136}, ! Construction Name
  ,                                       ! Intended Surface Type
  Exterior Floor:Slab,                    ! Construction Type
  0,                                      ! Perturbable Layer
  Insulation,                             ! Perturbable Layer Type
  ;                                       ! Other Perturbable Layer Type

OS:WindowMaterial:SimpleGlazingSystem,
  {5f5ee76f-d623-4dcb-990a-6fb5fe928de9}, !- Handle
  Glazing Layer,                          !- Name
  1.87382686445919,                       !- U-Factor {W/m2-K}
  0.379999995231628,                      !- Solar Heat Gain Coefficient
  0.75;                                   !- Visible Transmittance

OS:Construction,
  {dac0148a-30a3-40fb-a9a3-cd2ed9d1d126}, !- Handle
  fenestration___,                        !- Name
  {026f0b7f-1c74-4c38-a0aa-45cced1319ef}, !- Surface Rendering Name
  {5f5ee76f-d623-4dcb-990a-6fb5fe928de9}; !- Layer 1

OS:WindowMaterial:SimpleGlazingSystem,
  {7dfca1b0-26df-4293-8d0f-e603abfd747f}, !- Handle
  Skylight - Glazing Layer,               !- Name
  1.87382686445919,                       !- U-Factor {W/m2-K}
  0.379999995231628,                      !- Solar Heat Gain Coefficient
  0.600000023841858;                      !- Visible Transmittance

OS:Construction,
  {7bee35cf-488b-4135-bd53-34097c131a8a}, !- Handle
  skylight_1.87382686445919_0.379999995231628_0.600000023841858, !- Name
  {777e1360-6e8d-4da7-836f-8d74a1d3407f}, !- Surface Rendering Name
  {7dfca1b0-26df-4293-8d0f-e603abfd747f}; !- Layer 1

OS:PlantLoop,
  {b902c8a5-6749-4121-9799-add43bb1e09b}, !- Handle
  Boiler plant 25,                        !- Name
  Water,                                  !- Fluid Type
  ,                                       !- User Defined Fluid Type
  ,                                       !- Plant Equipment Operation Scheme Name
  {c7c2d394-0ea8-4303-88c4-34e8d474ddb3}, !- Loop Temperature Setpoint Node Name
  ,                                       !- Maximum Loop Temperature {C}
  ,                                       !- Minimum Loop Temperature {C}
  ,                                       !- Maximum Loop Flow Rate {m3/s}
  ,                                       !- Minimum Loop Flow Rate {m3/s}
  Autocalculate,                          !- Plant Loop Volume {m3}
  {ce9aa28a-79a8-4637-b121-a29a2a9751a4}, !- Plant Side Inlet Node Name
  {e136fe6b-75c0-4a31-93d3-6c78dc0f0652}, !- Plant Side Outlet Node Name
  ,                                       !- Plant Side Branch List Name
  {96a27965-57a0-448c-9141-326adf71fd3f}, !- Demand Side Inlet Node Name
  {adbe9942-78fd-4ada-a639-1b086ba61004}, !- Demand Side Outlet Node Name
  ,                                       !- Demand Side Branch List Name
  ,                                       !- Demand Side Connector List Name
  ,                                       !- Load Distribution Scheme
  ,                                       !- Availability Manager List Name
  ,                                       !- Plant Loop Demand Calculation Scheme
  ,                                       !- Common Pipe Simulation
  ;                                       !- Pressure Simulation Type

OS:Sizing:Plant,
  {293b3ee7-be5d-49ab-876e-cd4010d36ca3}, !- Handle
  {b902c8a5-6749-4121-9799-add43bb1e09b}, !- Plant or Condenser Loop Name
  Heating,                                !- Loop Type
  82,                                     !- Design Loop Exit Temperature {C}
  11;                                     !- Loop Design Temperature Difference {deltaC}

OS:Node,
  {a02e9b38-9216-41f7-877d-ca21ac044413}, !- Handle
  Node 1,                                 !- Name
  {ce9aa28a-79a8-4637-b121-a29a2a9751a4}, !- Inlet Port
  {d0c3d032-1358-42b5-b1d5-4d945b92c4c3}; !- Outlet Port

OS:Node,
  {c7c2d394-0ea8-4303-88c4-34e8d474ddb3}, !- Handle
  Node 2,                                 !- Name
  {2a6af97b-25ed-4741-8acd-adb439628c41}, !- Inlet Port
  {e136fe6b-75c0-4a31-93d3-6c78dc0f0652}; !- Outlet Port

OS:Node,
  {038fa443-1834-41ea-9409-2ee887fc381a}, !- Handle
  Node 3,                                 !- Name
  {11863b6d-243e-4a91-93af-dcf010c1ba4e}, !- Inlet Port
  {d721e0d6-1084-4022-acac-2a14d8a90964}; !- Outlet Port

OS:Connector:Mixer,
  {b666ff12-8334-47ac-a1f9-d2d75b70111d}, !- Handle
  Connector Mixer 1,                      !- Name
  {76ca7085-efdb-4594-9fe3-1d33a4302f64}, !- Outlet Branch Name
  {e866cceb-3b06-4023-a269-e22b4df1da78}, !- Inlet Branch Name 1
  {14d29e60-6dfb-494e-b750-277bb1d2b9f5}; !- Inlet Branch Name 2

OS:Connector:Splitter,
  {fd4b16cc-4c90-4ee9-a35e-122c230d63ab}, !- Handle
  Connector Splitter 1,                   !- Name
  {9edb0c31-bd42-4197-8c57-47cc7e9107d3}, !- Inlet Branch Name
  {11863b6d-243e-4a91-93af-dcf010c1ba4e}, !- Outlet Branch Name 1
  {422b7ec3-5655-4c83-a411-e0808ef40456}; !- Outlet Branch Name 2

OS:Connection,
  {ce9aa28a-79a8-4637-b121-a29a2a9751a4}, !- Handle
  Connection 1,                           !- Name
  {b902c8a5-6749-4121-9799-add43bb1e09b}, !- Source Object
  11,                                     !- Outlet Port
  {a02e9b38-9216-41f7-877d-ca21ac044413}, !- Target Object
  2;                                      !- Inlet Port

OS:Connection,
  {11863b6d-243e-4a91-93af-dcf010c1ba4e}, !- Handle
  Connection 3,                           !- Name
  {fd4b16cc-4c90-4ee9-a35e-122c230d63ab}, !- Source Object
  3,                                      !- Outlet Port
  {038fa443-1834-41ea-9409-2ee887fc381a}, !- Target Object
  2;                                      !- Inlet Port

OS:Connection,
  {e136fe6b-75c0-4a31-93d3-6c78dc0f0652}, !- Handle
  Connection 6,                           !- Name
  {c7c2d394-0ea8-4303-88c4-34e8d474ddb3}, !- Source Object
  3,                                      !- Outlet Port
  {b902c8a5-6749-4121-9799-add43bb1e09b}, !- Target Object
  12;                                     !- Inlet Port

OS:Node,
  {e00ae6b6-5ff3-425a-a540-fd58e2dfd2b8}, !- Handle
  Node 4,                                 !- Name
  {96a27965-57a0-448c-9141-326adf71fd3f}, !- Inlet Port
  {2d5c9aeb-ca7a-4546-9680-6b731841e1da}; !- Outlet Port

OS:Node,
  {c6b3c7c7-40a4-454c-8c4d-8c31bd4f6bcb}, !- Handle
  Node 5,                                 !- Name
  {9451afaa-2184-4f67-ae60-7c0b3ce8e97d}, !- Inlet Port
  {adbe9942-78fd-4ada-a639-1b086ba61004}; !- Outlet Port

OS:Node,
  {f841252b-4546-44fd-8b61-4afa0c9ec637}, !- Handle
  Node 6,                                 !- Name
  {2d17a64a-87d4-4b0f-919c-4077085cc839}, !- Inlet Port
  {4777d31f-e4c3-47d9-9b1e-7888bbae057a}; !- Outlet Port

OS:Connector:Mixer,
  {4cdc4c6b-7e55-4937-bc3e-927a1c470228}, !- Handle
  Connector Mixer 2,                      !- Name
  {9451afaa-2184-4f67-ae60-7c0b3ce8e97d}, !- Outlet Branch Name
  {482fdd40-afb6-43bc-80c3-1d1f2f1a271a}, !- Inlet Branch Name 1
  {9a785244-3565-4484-bcfb-540d6723bbeb}; !- Inlet Branch Name 2

OS:Connector:Splitter,
  {8a21eeb4-ecee-45bb-934d-ff48b344ae01}, !- Handle
  Connector Splitter 2,                   !- Name
  {2d5c9aeb-ca7a-4546-9680-6b731841e1da}, !- Inlet Branch Name
  {2d17a64a-87d4-4b0f-919c-4077085cc839}, !- Outlet Branch Name 1
  {5e37ac29-4391-437b-a8b3-baa8348c618f}; !- Outlet Branch Name 2

OS:Connection,
  {96a27965-57a0-448c-9141-326adf71fd3f}, !- Handle
  Connection 7,                           !- Name
  {b902c8a5-6749-4121-9799-add43bb1e09b}, !- Source Object
  14,                                     !- Outlet Port
  {e00ae6b6-5ff3-425a-a540-fd58e2dfd2b8}, !- Target Object
  2;                                      !- Inlet Port

OS:Connection,
  {2d5c9aeb-ca7a-4546-9680-6b731841e1da}, !- Handle
  Connection 8,                           !- Name
  {e00ae6b6-5ff3-425a-a540-fd58e2dfd2b8}, !- Source Object
  3,                                      !- Outlet Port
  {8a21eeb4-ecee-45bb-934d-ff48b344ae01}, !- Target Object
  2;                                      !- Inlet Port

OS:Connection,
  {2d17a64a-87d4-4b0f-919c-4077085cc839}, !- Handle
  Connection 9,                           !- Name
  {8a21eeb4-ecee-45bb-934d-ff48b344ae01}, !- Source Object
  3,                                      !- Outlet Port
  {f841252b-4546-44fd-8b61-4afa0c9ec637}, !- Target Object
  2;                                      !- Inlet Port

OS:Connection,
  {9451afaa-2184-4f67-ae60-7c0b3ce8e97d}, !- Handle
  Connection 11,                          !- Name
  {4cdc4c6b-7e55-4937-bc3e-927a1c470228}, !- Source Object
  2,                                      !- Outlet Port
  {c6b3c7c7-40a4-454c-8c4d-8c31bd4f6bcb}, !- Target Object
  2;                                      !- Inlet Port

OS:Connection,
  {adbe9942-78fd-4ada-a639-1b086ba61004}, !- Handle
  Connection 12,                          !- Name
  {c6b3c7c7-40a4-454c-8c4d-8c31bd4f6bcb}, !- Source Object
  3,                                      !- Outlet Port
  {b902c8a5-6749-4121-9799-add43bb1e09b}, !- Target Object
  15;                                     !- Inlet Port

OS:Pump:VariableSpeed,
  {e1cdcb2d-fe97-44cb-ba5e-12fb9a5bd30b}, !- Handle
  Heating: Pump for Boiler,               !- Name
  {d0c3d032-1358-42b5-b1d5-4d945b92c4c3}, !- Inlet Node Name
  {932f0e9d-4064-4129-87bf-464ba371c783}, !- Outlet Node Name
  ,                                       !- Rated Flow Rate {m3/s}
  ,                                       !- Rated Pump Head {Pa}
  ,                                       !- Rated Power Consumption {W}
  ,                                       !- Motor Efficiency
  ,                                       !- Fraction of Motor Inefficiencies to Fluid Stream
  ,                                       !- Coefficient 1 of the Part Load Performance Curve
  ,                                       !- Coefficient 2 of the Part Load Performance Curve
  ,                                       !- Coefficient 3 of the Part Load Performance Curve
  ,                                       !- Coefficient 4 of the Part Load Performance Curve
  ,                                       !- Minimum Flow Rate {m3/s}
  Intermittent;                           !- Pump Control Type

OS:Node,
  {9322e609-8c2b-4308-839b-82997c3b98fe}, !- Handle
  Node 7,                                 !- Name
  {932f0e9d-4064-4129-87bf-464ba371c783}, !- Inlet Port
  {9edb0c31-bd42-4197-8c57-47cc7e9107d3}; !- Outlet Port

OS:Connection,
  {d0c3d032-1358-42b5-b1d5-4d945b92c4c3}, !- Handle