
OS:Version,
  {5045ba6d-770f-4e33-959e-9d95746ff9d5}, !- Handle
  1.10.5;                                 !- Version Identifier

OS:SimulationControl,
  {f6c33679-5ca3-4a6a-b834-260566206a9a}, !- Handle
  Yes,                                    !- Do Zone Sizing Calculation
  Yes,                                    !- Do System Sizing Calculation
  ,                                       !- Do Plant Sizing Calculation
  No,                                     !- Run Simulation for Sizing Periods
  Yes;                                    !- Run Simulation for Weather File Run Periods

OS:Timestep,
  {f11e0e91-aede-4ec8-9475-d53bc69f69bb}, !- Handle
  6;                                      !- Number of Timesteps per Hour

OS:RunPeriod,
  {8fdb30e8-ac87-40a0-b87a-b927c3c51de8}, !- Handle
  Run Period 1,                           !- Name
  1,                                      !- Begin Month
  1,                                      !- Begin Day of Month
  12,                                     !- End Month
  31,                                     !- End Day of Month
  No,                                     !- Use Weather File Holidays and Special Days
  No,                                     !- Use Weather File Daylight Saving Period
  No,                                     !- Apply Weekend Holiday Rule
  Yes,                                    !- Use Weather File Rain Indicators
  Yes,                                    !- Use Weather File Snow Indicators
  1;                                      !- Number of Times Runperiod to be Repeated

OS:SurfaceConvectionAlgorithm:Inside,
  {89ea7292-4cd8-487d-af08-ea1db30806d3}, !- Handle
  TARP;                                   !- Algorithm

OS:SurfaceConvectionAlgorithm:Outside,
  {4abab59d-b0eb-472f-9da2-75d1b59886ac}, !- Handle
  DOE-2;                                  !- Algorithm

OS:HeatBalanceAlgorithm,
  {35fa2a8c-41d4-4a1e-8826-354451afcf83}, !- Handle
  ConductionTransferFunction,             !- Algorithm
  200;                                    !- Surface Temperature Upper Limit {C}

OS:ZoneAirHeatBalanceAlgorithm,
  {9289542b-9251-42f5-b242-af772a338500}, !- Handle
  ThirdOrderBackwardDifference;           !- Algorithm

OS:ConvergenceLimits,
  {7550c874-b25f-4f1c-aa27-507527bf11d6}, !- Handle
  1;                                      !- Minimum System Timestep {minutes}

OS:ShadowCalculation,
  {839d23bb-d792-4a15-87e1-8bb0ee0ad24a}, !- Handle
  20,                                     !- Calculation Frequency
  15000;                                  !- Maximum Figures in Shadow Overlap Calculations

OS:Site,
  {5e4e3744-3501-4ee0-8414-d9b15bdeb625}, !- Handle
  Site 1,                                 !- Name
  41.77,                                  !- Latitude {deg}
  -87.75,                                 !- Longitude {deg}
  -6,                                     !- Time Zone {hr}
  190,                                    !- Elevation {m}
  ;                                       !- Terrain

OS:Site:GroundTemperature:BuildingSurface,
  {46116448-7572-43e9-a847-4dfa952fd273}, !- Handle
  19.527,                                 !- January Ground Temperature {C}
  19.502,                                 !- February Ground Temperature {C}
  19.536,                                 !- March Ground Temperature {C}
  19.598,                                 !- April Ground Temperature {C}
  20.002,                                 !- May Ground Temperature {C}
  21.64,                                  !- June Ground Temperature {C}
  22.225,                                 !- July Ground Temperature {C}
  22.375,                                 !- August Ground Temperature {C}
  21.449,                                 !- September Ground Temperature {C}
  20.121,                                 !- October Ground Temperature {C}
  19.802,                                 !- November Ground Temperature {C}
  19.633;                                 !- December Ground Temperature {C}

OS:Site:WaterMainsTemperature,
  {dbaa1af7-129a-4dda-a1fb-7dab89fccf2e}, !- Handle
  Correlation,                            !- Calculation Method
  ,                                       !- Temperature Schedule Name
  9.69,                                   !- Annual Average Outdoor Air Temperature {C}
  28.1;                                   !- Maximum Difference In Monthly Average Outdoor Air Temperatures {deltaC}

OS:SizingPeriod:DesignDay,
  {57e1dffd-9c81-4742-9bd8-699c0c4447b7}, !- Handle
  Sizing Period Design Day 1,             !- Name
  -20.6,                                  !- Maximum Dry-Bulb Temperature {C}
  0,                                      !- Daily Dry-Bulb Temperature Range {deltaC}
  -20.6,                                  !- Humidity Indicating Conditions at Maximum Dry-Bulb
  99063,                                  !- Barometric Pressure {Pa}
  4.9,                                    !- Wind Speed {m/s}
  270,                                    !- Wind Direction {deg}
  0,                                      !- Sky Clearness
  0,                                      !- Rain Indicator
  0,                                      !- Snow Indicator
  21,                                     !- Day of Month
  1,                                      !- Month
  WinterDesignDay,                        !- Day Type
  0,                                      !- Daylight Saving Time Indicator
  WetBulb,                                !- Humidity Indicating Type
  ,                                       !- Humidity Indicating Day Schedule Name
  DefaultMultipliers,                     !- Dry-Bulb Temperature Range Modifier Type
  ,                                       !- Dry-Bulb Temperature Range Modifier Schedule Name
  AshraeClearSky;                         !- Solar Model Indicator

OS:SizingPeriod:DesignDay,
  {ea5f8c43-f404-43f0-8f0b-8ba212032f7d}, !- Handle
  Sizing Period Design Day 2,             !- Name
  33.2,                                   !- Maximum Dry-Bulb Temperature {C}
  10.7,                                   !- Daily Dry-Bulb Temperature Range {deltaC}
  23.8,                                   !- Humidity Indicating Conditions at Maximum Dry-Bulb
  99063,                                  !- Barometric Pressure {Pa}
  5.3,                                    !- Wind Speed {m/s}
  230,                                    !- Wind Direction {deg}
  1,                                      !- Sky Clearness
  0,                                      !- Rain Indicator
  0,                                      !- Snow Indicator
  21,                                     !- Day of Month
  7,                                      !- Month
  SummerDesignDay,                        !- Day Type
  0,                                      !- Daylight Saving Time Indicator
  WetBulb,                                !- Humidity Indicating Type
  ,                                       !- Humidity Indicating Day Schedule Name
  DefaultMultipliers,                     !- Dry-Bulb Temperature Range Modifier Type
  ,                                       !- Dry-Bulb Temperature Range Modifier Schedule Name
  AshraeClearSky;                         !- Solar Model Indicator

OS:ScheduleTypeLimits,
  {28e6bcb8-0b9c-439c-afbb-0b1a06e6911a}, !- Handle
  Temperature,                            !- Name
  -60,                                    !- Lower Limit Value
  200,                                    !- Upper Limit Value
  CONTINUOUS,                             !- Numeric Type
  Temperature;                            !- Unit Type

OS:DefaultScheduleSet,
  {37443190-746c-4abb-890d-6090c7070eb1}, !- Handle
  Default Schedules,                      !- Name
  ,                                       !- Hours of Operation Schedule Name
  {5a54189c-83d0-45e5-9286-c3b69af86a24}, !- Number of People Schedule Name
  {e22b4a9a-110b-405b-800b-c526f7d50a3e}, !- People Activity Level Schedule Name
  {630ceb1d-8050-4a98-b542-a9408e21ba14}, !- Lighting Schedule Name
  {0c006d32-6ffd-4256-92cf-1fad7231f776}, !- Electric Equipment Schedule Name
  {dc72f6de-fc04-4b33-b765-56d226fa4073}, !- Gas Equipment Schedule Name
  {1ae0237f-2750-4f28-941f-97fe9acbc2ac}, !- Hot Water Equipment Schedule Name
  {a0894f8f-dcba-4455-b6c6-27a7fd6486de}, !- Infiltration Schedule Name
  ,                                       !- Steam Equipment Schedule Name
  ;                                       !- Other Equipment Schedule Name

OS:Schedule:Ruleset,
  {5a54189c-83d0-45e5-9286-c3b69af86a24}, !- Handle
  Medium Office Number of People Schedule, !- Name
  {c018617f-225e-423f-849b-1849439b8656}, !- Schedule Type Limits Name
  {23aa611c-8990-4933-b22f-fcb4bdc88e53}, !- Default Day Schedule Name
  {e153b519-2672-42cb-a76f-304c448a0ecb}; !- Summer Design Day Schedule Name

OS:Schedule:Day,
  {23aa611c-8990-4933-b22f-fcb4bdc88e53}, !- Handle
  Medium Office Number of People All Other Days Schedule, !- Name
  {c018617f-225e-423f-849b-1849439b8656}, !- Schedule Type Limits Name
  ,                                       !- Interpolate to Timestep
  24,                                     !- Hour 1
  0,                                      !- Minute 1
  0;                                      !- Value Until Time 1

OS:Schedule:Day,
  {901090a0-788c-4085-bfe8-1f704bc4d75c}, !- Handle
  Medium Office Number of People Summer Design Day Schedule, !- Name
  ,                                       !- Schedule Type Limits Name
  ,                                       !- Interpolate to Timestep
  6,                                      !- Hour 1
  0,                                      !- Minute 1
  0,                                      !- Value Until Time 1
  22,                                     !- Hour 2
  0,                                      !- Minute 2
  1,                                      !- Value Until Time 2
  24,                                     !- Hour 3
  0,                                      !- Minute 3
  0.05;                                   !- Value Until Time 3

OS:Schedule:Day,
  {e153b519-2672-42cb-a76f-304c448a0ecb}, !- Handle
  Medium Office Number of People Summer Design Day Schedule 1, !- Name
  {c018617f-225e-423f-849b-1849439b8656}, !- Schedule Type Limits Name
  ,                                       !- Interpolate to Timestep
  6,                                      !- Hour 1
  0,                                      !- Minute 1
  0,                                      !- Value Until Time 1
  22,                                     !- Hour 2
  0,                                      !- Minute 2
  1,                                      !- Value Until Time 2
  24,                                     !- Hour 3
  0,                                      !- Minute 3
  0.05;                                   !- Value Until Time 3

OS:Schedule:Rule,
  {be391f93-e289-4da4-ad52-e4d4f431a342}, !- Handle
  Medium Office Number of People Schedule Weekdays Rule, !- Name
  {5a54189c-83d0-45e5-9286-c3b69af86a24}, !- Schedule Ruleset Name
  1,                                      !- Rule Order
  {5c4f47ad-51f7-448c-8e89-22400f78ed6f}, !- Day Schedule Name
  ,                                       !- Apply Sunday
  Yes,                                    !- Apply Monday
  Yes,                                    !- Apply Tuesday
  Yes,                                    !- Apply Wednesday
  Yes,                                    !- Apply Thursday
  Yes;                                    !- Apply Friday

OS:Schedule:Day,
  {5c4f47ad-51f7-448c-8e89-22400f78ed6f}, !- Handle
  Medium Office Number of People Weekdays Schedule, !- Name
  {c018617f-225e-423f-849b-1849439b8656}, !- Schedule Type Limits Name
  ,                                       !- Interpolate to Timestep
  6,                                      !- Hour 1
  0,                                      !- Minute 1
  0,                                      !- Value Until Time 1
  7,                                      !- Hour 2
  0,                                      !- Minute 2
  0.1,                                    !- Value Until Time 2
  8,                                      !- Hour 3
  0,                                      !- Minute 3
  0.2,                                    !- Value Until Time 3
  12,                                     !- Hour 4
  0,                                      !- Minute 4
  0.95,                                   !- Value Until Time 4
  13,                                     !- Hour 5
  0,                                      !- Minute 5
  0.5,                                    !- Value Until Time 5
  17,                                     !- Hour 6
  0,                                      !- Minute 6
  0.95,                                   !- Value Until Time 6
  18,                                     !- Hour 7
  0,                                      !- Minute 7
  0.7,                                    !- Value Until Time 7
  20,                                     !- Hour 8
  0,                                      !- Minute 8
  0.4,                                    !- Value Until Time 8
  22,                                     !- Hour 9
  0,                                      !- Minute 9
  0.1,                                    !- Value Until Time 9
  24,                                     !- Hour 10
  0,                                      !- Minute 10
  0.05;                                   !- Value Until Time 10

OS:Schedule:Rule,
  {20e97ed6-c8ba-4b00-8856-644d1d507375}, !- Handle
  Medium Office Number of People Schedule Saturday Rule, !- Name
  {5a54189c-83d0-45e5-9286-c3b69af86a24}, !- Schedule Ruleset Name
  0,                                      !- Rule Order
  {d170b590-8298-4937-a64d-e977c2853352}, !- Day Schedule Name
  ,                                       !- Apply Sunday
  ,                                       !- Apply Monday
  ,                                       !- Apply Tuesday
  ,                                       !- Apply Wednesday
  ,                                       !- Apply Thursday
  ,                                       !- Apply Friday
  Yes;                                    !- Apply Saturday

OS:Schedule:Day,
  {d170b590-8298-4937-a64d-e977c2853352}, !- Handle
  Medium Office Number of People Saturday Schedule, !- Name
  {c018617f-225e-423f-849b-1849439b8656}, !- Schedule Type Limits Name
  ,                                       !- Interpolate to Timestep
  6,                                      !- Hour 1
  0,                                      !- Minute 1
  0,                                      !- Value Until Time 1
  8,                                      !- Hour 2
  0,                                      !- Minute 2
  0.1,                                    !- Value Until Time 2
  14,                                     !- Hour 3
  0,                                      !- Minute 3
  0.5,                                    !- Value Until Time 3
  17,                                     !- Hour 4
  0,                                      !- Minute 4
  0.1,                                    !- Value Until Time 4
  24,                                     !- Hour 5
  0,                                      !- Minute 5
  0;                                      !- Value Until Time 5

OS:ScheduleTypeLimits,
  {c018617f-225e-423f-849b-1849439b8656}, !- Handle
  Fractional,                             !- Name
  0,                                      !- Lower Limit Value
  1,                                      !- Upper Limit Value
  Continuous;                             !- Numeric Type

OS:Schedule:Ruleset,
  {e22b4a9a-110b-405b-800b-c526f7d50a3e}, !- Handle
  Medium Office People Activity Level Schedule, !- Name
  {e4e1e79c-c75e-4abf-93fa-b14b98a603e7}, !- Schedule Type Limits Name
  {1b05dd51-faf0-483d-ade1-a8c14a893c83}; !- Default Day Schedule Name

OS:Schedule:Day,
  {1b05dd51-faf0-483d-ade1-a8c14a893c83}, !- Handle
  Medium Office People Activity Level All Days Schedule, !- Name
  {e4e1e79c-c75e-4abf-93fa-b14b98a603e7}, !- Schedule Type Limits Name
  ,                                       !- Interpolate to Timestep
  24,                                     !- Hour 1
  0,                                      !- Minute 1
  120;                                    !- Value Until Time 1

OS:ScheduleTypeLimits,
  {e4e1e79c-c75e-4abf-93fa-b14b98a603e7}, !- Handle
  ActivityLevel,                          !- Name
  0,                                      !- Lower Limit Value
  ,                                       !- Upper Limit Value
  Continuous,                             !- Numeric Type
  ActivityLevel;                          !- Unit Type

OS:Schedule:Ruleset,
  {630ceb1d-8050-4a98-b542-a9408e21ba14}, !- Handle
  Medium Office Lighting Schedule,        !- Name
  {c018617f-225e-423f-849b-1849439b8656}, !- Schedule Type Limits Name
  {630de9b0-1529-4002-803c-bc5b0d6b0d0c}, !- Default Day Schedule Name
  {22040b2d-b7e2-48cb-a848-47ddf4fe7aa5}, !- Summer Design Day Schedule Name
  {00f47d53-de48-43c2-b140-181d906f841a}; !- Winter Design Day Schedule Name

OS:Schedule:Day,
  {630de9b0-1529-4002-803c-bc5b0d6b0d0c}, !- Handle
  Medium Office Lighting All Other Days Schedule, !- Name
  {c018617f-225e-423f-849b-1849439b8656}, !- Schedule Type Limits Name
  ,                                       !- Interpolate to Timestep
  24,                                     !- Hour 1
  0,                                      !- Minute 1
  0.05;                                   !- Value Until Time 1

OS:Schedule:Day,
  {648e6855-7ed7-4c48-9938-d5fe0ca03a1c}, !- Handle
  Medium Office Lighting Summer Design Day Schedule, !- Name
  ,                                       !- Schedule Type Limits Name
  ,                                       !- Interpolate to Timestep
  6,                                      !- Hour 1
  0,                                      !- Minute 1
  1,                                      !- Value Until Time 1
  24,                                     !- Hour 2
  0,                                      !- Minute 2
  0;                                      !- Value Until Time 2

OS:Schedule:Day,
  {22040b2d-b7e2-48cb-a848-47ddf4fe7aa5}, !- Handle
  Medium Office Lighting Summer Design Day Schedule 1, !- Name
  {c018617f-225e-423f-849b-1849439b8656}, !- Schedule Type Limits Name
  ,                                       !- Interpolate to Timestep
  6,                                      !- Hour 1
  0,                                      !- Minute 1
  1,                                      !- Value Until Time 1
  24,                                     !- Hour 2
  0,                                      !- Minute 2
  0;                                      !- Value Until Time 2

OS:Schedule:Day,
  {10ae8f87-3104-4dbb-be97-1c9a5d094c36}, !- Handle
  Medium Office Lighting Winter Design Day Schedule, !- Name
  ,                                       !- Schedule Type Limits Name
  ,                                       !- Interpolate to Timestep
  24,                                     !- Hour 1
  0,                                      !- Minute 1
  0;                                      !- Value Until Time 1

OS:Schedule:Day,
  {00f47d53-de48-43c2-b140-181d906f841a}, !- Handle
  Medium Office Lighting Winter Design Day Schedule 1, !- Name
  {c018617f-225e-423f-849b-1849439b8656}, !- Schedule Type Limits Name
  ,                                       !- Interpolate to Timestep
  24,                                     !- Hour 1
  0,                                      !- Minute 1
  0;                                      !- Value Until Time 1

OS:Schedule:Rule,
  {c39eb505-835b-4bb3-8aff-7166223fb7d4}, !- Handle
  Medium Office Lighting Schedule Weekdays Rule, !- Name
  {630ceb1d-8050-4a98-b542-a9408e21ba14}, !- Schedule Ruleset Name
  1,                                      !- Rule Order
  {e7fa3e8d-c48f-4cd9-84a9-4811d483b0e9}, !- Day Schedule Name
  ,                                       !- Apply Sunday
  Yes,                                    !- Apply Monday
  Yes,                                    !- Apply Tuesday
  Yes,                                    !- Apply Wednesday
  Yes,                                    !- Apply Thursday
  Yes;                                    !- Apply Friday

OS:Schedule:Day,
  {e7fa3e8d-c48f-4cd9-84a9-4811d483b0e9}, !- Handle
  Medium Office Lighting Weekdays Schedule, !- Name
  {c018617f-225e-423f-849b-1849439b8656}, !- Schedule Type Limits Name
  ,                                       !- Interpolate to Timestep
  5,                                      !- Hour 1
  0,                                      !- Minute 1
  0.05,                                   !- Value Until Time 1
  7,                                      !- Hour 2
  0,                                      !- Minute 2
  0.1,                                    !- Value Until Time 2
  8,                                      !- Hour 3
  0,                                      !- Minute 3
  0.3,                                    !- Value Until Time 3
  17,                                     !- Hour 4
  0,                                      !- Minute 4
  0.9,                                    !- Value Until Time 4
  18,                                     !- Hour 5
  0,                                      !- Minute 5
  0.7,                                    !- Value Until Time 5
  20,                                     !- Hour 6
  0,                                      !- Minute 6
  0.5,                                    !- Value Until Time 6
  22,                                     !- Hour 7
  0,                                      !- Minute 7
  0.3,                                    !- Value Until Time 7
  23,                                     !- Hour 8
  0,                                      !- Minute 8
  0.1,                                    !- Value Until Time 8
  24,                                     !- Hour 9
  0,                                      !- Minute 9
  0.05;                                   !- Value Until Time 9

OS:Schedule:Rule,
  {7b5614b5-1167-46de-8fcd-fdbdd3b8cbcd}, !- Handle
  Medium Office Lighting Schedule Saturday Rule, !- Name
  {630ceb1d-8050-4a98-b542-a9408e21ba14}, !- Schedule Ruleset Name
  0,                                      !- Rule Order
  {c6776615-d836-488d-b70e-a27045b8df60}, !- Day Schedule Name
  ,                                       !- Apply Sunday
  ,                                       !- Apply Monday
  ,                                       !- Apply Tuesday
  ,                                       !- Apply Wednesday
  ,                                       !- Apply Thursday
  ,                                       !- Apply Friday
  Yes;                                    !- Apply Saturday

OS:Schedule:Day,
  {c6776615-d836-488d-b70e-a27045b8df60}, !- Handle
  Medium Office Lighting Saturday Schedule, !- Name
  {c018617f-225e-423f-849b-1849439b8656}, !- Schedule Type Limits Name
  ,                                       !- Interpolate to Timestep
  6,                                      !- Hour 1
  0,                                      !- Minute 1
  0.05,                                   !- Value Until Time 1
  8,                                      !- Hour 2
  0,                                      !- Minute 2
  0.1,                                    !- Value Until Time 2
  14,                                     !- Hour 3
  0,                                      !- Minute 3
  0.5,                                    !- Value Until Time 3
  17,                                     !- Hour 4
  0,                                      !- Minute 4
  0.15,                                   !- Value Until Time 4
  24,                                     !- Hour 5
  0,                                      !- Minute 5
  0.05;                                   !- Value Until Time 5

OS:Schedule:Ruleset,
  {0c006d32-6ffd-4256-92cf-1fad7231f776}, !- Handle
  Medium Office Electric Equipment Schedule, !- Name
  {c018617f-225e-423f-849b-1849439b8656}, !- Schedule Type Limits Name
  {d6a8b3bf-4077-4135-89c1-3af9169ad7a5}, !- Default Day Schedule Name
  {4462beb4-4d35-40bc-9059-3bc1e4fe7e32}, !- Summer Design Day Schedule Name
  {9706ab83-97e3-42ea-9bbe-7e73bded9921}; !- Winter Design Day Schedule Name

OS:Schedule:Day,
  {d6a8b3bf-4077-4135-89c1-3af9169ad7a5}, !- Handle
  Medium Office Electric Equipment All Other Days Schedule, !- Name
  {c018617f-225e-423f-849b-1849439b8656}, !- Schedule Type Limits Name
  ,                                       !- Interpolate to Timestep
  24,                                     !- Hour 1
  0,                                      !- Minute 1
  0.3;                                    !- Value Until Time 1

OS:Schedule:Day,
  {441a8eca-475c-47b9-bf8a-ad36e27a99c3}, !- Handle
  Medium Office Electric Equipment Summer Design Day Schedule, !- Name
  ,                                       !- Schedule Type Limits Name
  ,                                       !- Interpolate to Timestep
  6,                                      !- Hour 1
  0,                                      !- Minute 1
  1,                                      !- Value Until Time 1
  24,                                     !- Hour 2
  0,                                      !- Minute 2
  0;                                      !- Value Until Time 2

OS:Schedule:Day,
  {4462beb4-4d35-40bc-9059-3bc1e4fe7e32}, !- Handle
  Medium Office Electric Equipment Summer Design Day Schedule 1, !- Name
  {c018617f-225e-423f-849b-1849439b8656}, !- Schedule Type Limits Name
  ,                                       !- Interpolate to Timestep
  6,                                      !- Hour 1
  0,                                      !- Minute 1
  1,                                      !- Value Until Time 1
  24,                                     !- Hour 2
  0,                                      !- Minute 2
  0;                                      !- Value Until Time 2

OS:Schedule:Day,
  {4945323f-6874-4206-a988-18a039a79538}, !- Handle
  Medium Office Electric Equipment Winter Design Day Schedule, !- Name
  ,                                       !- Schedule Type Limits Name
  ,                                       !- Interpolate to Timestep
  24,                                     !- Hour 1
  0,                                      !- Minute 1
  0;                                      !- Value Until Time 1

OS:Schedule:Day,
  {9706ab83-97e3-42ea-9bbe-7e73bded9921}, !- Handle
  Medium Office Electric Equipment Winter Design Day Schedule 1, !- Name
  {c018617f-225e-423f-849b-1849439b8656}, !- Schedule Type Limits Name
  ,                                       !- Interpolate to Timestep
  24,                                     !- Hour 1
  0,                                      !- Minute 1
  0;                                      !- Value Until Time 1

OS:Schedule:Rule,
  {d14e31d4-9360-46ca-9ff7-50ea271bddcf}, !- Handle
  Medium Office Electric Equipment Schedule Weekdays Rule, !- Name
  {0c006d32-6ffd-4256-92cf-1fad7231f776}, !- Schedule Ruleset Name
  1,                                      !- Rule Order
  {030b76c9-7801-480c-a5d1-82c550242670}, !- Day Schedule Name
  ,                                       !- Apply Sunday
  Yes,                                    !- Apply Monday
  Yes,                                    !- Apply Tuesday
  Yes,                                    !- Apply Wednesday
  Yes,                                    !- Apply Thursday
  Yes;                                    !- Apply Friday

OS:Schedule:Day,
  {030b76c9-7801-480c-a5d1-82c550242670}, !- Handle
  Medium Office Electric Equipment Weekdays Schedule, !- Name
  {c018617f-225e-423f-849b-1849439b8656}, !- Schedule Type Limits Name
  ,                                       !- Interpolate to Timestep
  8,                                      !- Hour 1
  0,                                      !- Minute 1
  0.4,                                    !- Value Until Time 1
  12,                                     !- Hour 2
  0,                                      !- Minute 2
  0.9,                                    !- Value Until Time 2
  13,                                     !- Hour 3
  0,                                      !- Minute 3
  0.8,                                    !- Value Until Time 3
  17,                                     !- Hour 4
  0,                                      !- Minute 4
  0.9,                                    !- Value Until Time 4
  18,                                     !- Hour 5
  0,                                      !- Minute 5
  0.8,                                    !- Value Until Time 5
  20,                                     !- Hour 6
  0,                                      !- Minute 6
  0.6,                                    !- Value Until Time 6
  22,                                     !- Hour 7
  0,                                      !- Minute 7
  0.5,                                    !- Value Until Time 7
  24,                                     !- Hour 8
  0,                                      !- Minute 8
  0.4;                                    !- Value Until Time 8

OS:Schedule:Rule,
  {9c3fe9ea-d69e-4aa3-95ea-f58361d46cec}, !- Handle
  Medium Office Electric Equipment Schedule Saturday Rule, !- Name
  {0c006d32-6ffd-4256-92cf-1fad7231f776}, !- Schedule Ruleset Name
  0,                                      !- Rule Order
  {291e5a57-3568-476a-b9be-e97bb1fe101b}, !- Day Schedule Name
  ,                                       !- Apply Sunday
  ,                                       !- Apply Monday
  ,                                       !- Apply Tuesday
  ,                                       !- Apply Wednesday
  ,                                       !- Apply Thursday