
OS:Version,
  {076f42ac-f5fe-46c5-a7bc-64e535d49806}, !- Handle
  1.0.2;                                  !- Version Identifier

OS:SimulationControl,
  {a44562b0-0e88-4335-8e84-be8cfd7cff15}, !- Handle
  Yes,                                    !- Do Zone Sizing Calculation
  Yes,                                    !- Do System Sizing Calculation
  ,                                       !- Do Plant Sizing Calculation
  No,                                     !- Run Simulation for Sizing Periods
  Yes;                                    !- Run Simulation for Weather File Run Periods

OS:Timestep,
  {1c1e8331-0cd2-4b4c-a61e-cc943f89aff7}, !- Handle
  6;                                      !- Number of Timesteps per Hour

OS:RunPeriod,
  {15bb5e5f-faa0-410b-883d-065c85b878c1}, !- Handle
  Run Period 1,                           !- Name
  1,                                      !- Begin Month
  1,                                      !- Begin Day of Month
  12,                                     !- End Month
  31,                                     !- End Day of Month
  No,                                     !- Use Weather File Holidays and Special Days
  No,                                     !- Use Weather File Daylight Saving Period
  No,                                     !- Apply Weekend Holiday Rule
  Yes,                                    !- Use Weather File Rain Indicators
  Yes,                                    !- Use Weather File Snow Indicators
  1;                                      !- Number of Times Runperiod to be Repeated

OS:SurfaceConvectionAlgorithm:Inside,
  {a19d8879-0b15-4fdb-a0cf-364435248d9b}, !- Handle
  TARP;                                   !- Algorithm

OS:SurfaceConvectionAlgorithm:Outside,
  {3baeaf36-b03a-44f5-b4be-97ac09e4c0ce}, !- Handle
  DOE-2;                                  !- Algorithm

OS:HeatBalanceAlgorithm,
  {df129ec5-54b3-4d60-bfe9-993904048949}, !- Handle
  ConductionTransferFunction,             !- Algorithm
  200;                                    !- Surface Temperature Upper Limit {F}

OS:ZoneAirHeatBalanceAlgorithm,
  {b455618f-5e5e-4477-a6f0-527b4f8dd337}, !- Handle
  AnalyticalSolution;                     !- Algorithm

OS:ConvergenceLimits,
  {e5f11352-8364-45e8-b74c-6bb8f92b11f9}; !- Handle

OS:ShadowCalculation,
  {42423c15-69b3-4cb5-adb5-28e33c939ef6}, !- Handle
  7,                                      !- Calculation Frequency
  15000;                                  !- Maximum Figures in Shadow Overlap Calculations

OS:Site,
  {e18e274a-e492-4a47-a35e-82abf80e902b}, !- Handle
  Site 1,                                 !- Name
  41.77,                                  !- Latitude {deg}
  -87.75,                                 !- Longitude {deg}
  -6,                                     !- Time Zone {hr}
  190,                                    !- Elevation {m}
  ;                                       !- Terrain

OS:Site:GroundTemperature:BuildingSurface,
  {3ad86c7a-a5b8-4cf0-b336-1e7197589efe}, !- Handle
  19.527,                                 !- January Ground Temperature {C}
  19.502,                                 !- February Ground Temperature {C}
  19.536,                                 !- March Ground Temperature {C}
  19.598,                                 !- April Ground Temperature {C}
  20.002,                                 !- May Ground Temperature {C}
  21.64,                                  !- June Ground Temperature {C}
  22.225,                                 !- July Ground Temperature {C}
  22.375,                                 !- August Ground Temperature {C}
  21.449,                                 !- September Ground Temperature {C}
  20.121,                                 !- October Ground Temperature {C}
  19.802,                                 !- November Ground Temperature {C}
  19.633;                                 !- December Ground Temperature {C}

OS:Site:WaterMainsTemperature,
  {154f191a-286e-4ef7-9192-f480df88d5ca}, !- Handle
  Correlation,                            !- Calculation Method
  ,                                       !- Temperature Schedule Name
  9.69,                                   !- Annual Average Outdoor Air Temperature {C}
  28.1;                                   !- Maximum Difference In Monthly Average Outdoor Air Temperatures {deltaC}

OS:SizingPeriod:DesignDay,
  {ccd8271f-f9b4-4dbf-97de-65ccc1a486d8}, !- Handle
  Sizing Period Design Day 1,             !- Name
  -20.6,                                  !- Maximum Dry-Bulb Temperature {C}
  0,                                      !- Daily Dry-Bulb Temperature Range {deltaC}
  -20.6,                                  !- Humidity Indicating Conditions at Maximum Dry-Bulb {BasedOnField A3}
  99063,                                  !- Barometric Pressure {Pa}
  4.9,                                    !- Wind Speed {m/s}
  270,                                    !- Wind Direction {deg}
  0,                                      !- Sky Clearness
  0,                                      !- Rain Indicator
  0,                                      !- Snow Indicator
  21,                                     !- Day of Month
  1,                                      !- Month
  WinterDesignDay,                        !- Day Type
  0,                                      !- Daylight Saving Time Indicator
  WetBulb,                                !- Humidity Indicating Type
  ,                                       !- Humidity Indicating Day Schedule Name
  DefaultMultipliers,                     !- Dry-Bulb Temperature Range Modifier Type
  ,                                       !- Dry-Bulb Temperature Range Modifier Schedule Name
  AshraeClearSky;                         !- Solar Model Indicator

OS:SizingPeriod:DesignDay,
  {caf6c27c-3a53-41e6-8216-eac354f56900}, !- Handle
  Sizing Period Design Day 2,             !- Name
  33.2,                                   !- Maximum Dry-Bulb Temperature {C}
  10.7,                                   !- Daily Dry-Bulb Temperature Range {deltaC}
  23.8,                                   !- Humidity Indicating Conditions at Maximum Dry-Bulb {BasedOnField A3}
  99063,                                  !- Barometric Pressure {Pa}
  5.3,                                    !- Wind Speed {m/s}
  230,                                    !- Wind Direction {deg}
  1,                                      !- Sky Clearness
  0,                                      !- Rain Indicator
  0,                                      !- Snow Indicator
  21,                                     !- Day of Month
  7,                                      !- Month
  SummerDesignDay,                        !- Day Type
  0,                                      !- Daylight Saving Time Indicator
  WetBulb,                                !- Humidity Indicating Type
  ,                                       !- Humidity Indicating Day Schedule Name
  DefaultMultipliers,                     !- Dry-Bulb Temperature Range Modifier Type
  ,                                       !- Dry-Bulb Temperature Range Modifier Schedule Name
  AshraeClearSky;                         !- Solar Model Indicator

OS:ScheduleTypeLimits,
  {83967505-2436-4ab5-b790-7aaf0daf0967}, !- Handle
  Temperature,                            !- Name
  -60,                                    !- Lower Limit Value {BasedOnField A4}
  200,                                    !- Upper Limit Value {BasedOnField A4}
  CONTINUOUS,                             !- Numeric Type
  Temperature;                            !- Unit Type

OS:DefaultScheduleSet,
  {7d7ca5d0-f03b-4418-b848-48f9e67a06ba}, !- Handle
  Default Schedules,                      !- Name
  ,                                       !- Hours of Operation Schedule Name
  {14046371-bef5-43db-99d3-f8f8ddc556e0}, !- Number of People Schedule Name
  {52563333-dff7-4955-b093-cb6bf74137f1}, !- People Activity Level Schedule Name
  {58a96b2a-8174-4331-bb6b-72510d43674c}, !- Lighting Schedule Name
  {0a2b88e8-3702-4536-9148-5ff34547800f}, !- Electric Equipment Schedule Name
  {93807474-b533-4b1f-810a-acc11731e3d4}, !- Gas Equipment Schedule Name
  {62bc0cb3-fc0e-4ad9-8a34-32deda343e9d}, !- Hot Water Equipment Schedule Name
  {df073c92-0688-4bfd-9f7c-a379c86584c2}, !- Infiltration Schedule Name
  ,                                       !- Steam Equipment Schedule Name
  ;                                       !- Other Equipment Schedule Name

OS:Schedule:Ruleset,
  {14046371-bef5-43db-99d3-f8f8ddc556e0}, !- Handle
  Medium Office Number of People Schedule, !- Name
  {480b9397-0d1d-432e-9e1b-5b1ce1318b19}, !- Schedule Type Limits Name
  {dfe34f9b-a3cd-44db-9220-e6ff73c525d1}, !- Default Day Schedule Name
  {4ecd778c-9bfc-447b-8f93-117a1c031dd6}; !- Summer Design Day Schedule Name

OS:Schedule:Day,
  {dfe34f9b-a3cd-44db-9220-e6ff73c525d1}, !- Handle
  Medium Office Number of People All Other Days Schedule, !- Name
  {480b9397-0d1d-432e-9e1b-5b1ce1318b19}, !- Schedule Type Limits Name
  ,                                       !- Interpolate to Timestep
  24,                                     !- Hour 1
  0,                                      !- Minute 1
  0;                                      !- Value Until Time 1

OS:Schedule:Day,
  {8483f203-627d-44b9-bff4-b70da5005d87}, !- Handle
  Medium Office Number of People Summer Design Day Schedule, !- Name
  ,                                       !- Schedule Type Limits Name
  ,                                       !- Interpolate to Timestep
  6,                                      !- Hour 1
  0,                                      !- Minute 1
  0,                                      !- Value Until Time 1
  22,                                     !- Hour 2
  0,                                      !- Minute 2
  1,                                      !- Value Until Time 2
  24,                                     !- Hour 3
  0,                                      !- Minute 3
  0.05;                                   !- Value Until Time 3

OS:Schedule:Day,
  {4ecd778c-9bfc-447b-8f93-117a1c031dd6}, !- Handle
  Medium Office Number of People Summer Design Day Schedule 1, !- Name
  {480b9397-0d1d-432e-9e1b-5b1ce1318b19}, !- Schedule Type Limits Name
  ,                                       !- Interpolate to Timestep
  6,                                      !- Hour 1
  0,                                      !- Minute 1
  0,                                      !- Value Until Time 1
  22,                                     !- Hour 2
  0,                                      !- Minute 2
  1,                                      !- Value Until Time 2
  24,                                     !- Hour 3
  0,                                      !- Minute 3
  0.05;                                   !- Value Until Time 3

OS:Schedule:Rule,
  {84636400-cadf-459a-a557-0716c7b6ac8f}, !- Handle
  Medium Office Number of People Schedule Weekdays Rule, !- Name
  {14046371-bef5-43db-99d3-f8f8ddc556e0}, !- Schedule Ruleset Name
  1,                                      !- Rule Order
  {69a91750-5144-4885-8e1f-9c89e00ae1a9}, !- Day Schedule Name
  ,                                       !- Apply Sunday
  Yes,                                    !- Apply Monday
  Yes,                                    !- Apply Tuesday
  Yes,                                    !- Apply Wednesday
  Yes,                                    !- Apply Thursday
  Yes;                                    !- Apply Friday

OS:Schedule:Day,
  {69a91750-5144-4885-8e1f-9c89e00ae1a9}, !- Handle
  Medium Office Number of People Weekdays Schedule, !- Name
  {480b9397-0d1d-432e-9e1b-5b1ce1318b19}, !- Schedule Type Limits Name
  ,                                       !- Interpolate to Timestep
  6,                                      !- Hour 1
  0,                                      !- Minute 1
  0,                                      !- Value Until Time 1
  7,                                      !- Hour 2
  0,                                      !- Minute 2
  0.1,                                    !- Value Until Time 2
  8,                                      !- Hour 3
  0,                                      !- Minute 3
  0.2,                                    !- Value Until Time 3
  12,                                     !- Hour 4
  0,                                      !- Minute 4
  0.95,                                   !- Value Until Time 4
  13,                                     !- Hour 5
  0,                                      !- Minute 5
  0.5,                                    !- Value Until Time 5
  17,                                     !- Hour 6
  0,                                      !- Minute 6
  0.95,                                   !- Value Until Time 6
  18,                                     !- Hour 7
  0,                                      !- Minute 7
  0.7,                                    !- Value Until Time 7
  20,                                     !- Hour 8
  0,                                      !- Minute 8
  0.4,                                    !- Value Until Time 8
  22,                                     !- Hour 9
  0,                                      !- Minute 9
  0.1,                                    !- Value Until Time 9
  24,                                     !- Hour 10
  0,                                      !- Minute 10
  0.05;                                   !- Value Until Time 10

OS:Schedule:Rule,
  {b7fb9dc8-3938-496a-af0a-de843cb4ed88}, !- Handle
  Medium Office Number of People Schedule Saturday Rule, !- Name
  {14046371-bef5-43db-99d3-f8f8ddc556e0}, !- Schedule Ruleset Name
  0,                                      !- Rule Order
  {eea87bfe-c74f-48fa-8b50-ecf2f2b0fe7f}, !- Day Schedule Name
  ,                                       !- Apply Sunday
  ,                                       !- Apply Monday
  ,                                       !- Apply Tuesday
  ,                                       !- Apply Wednesday
  ,                                       !- Apply Thursday
  ,                                       !- Apply Friday
  Yes;                                    !- Apply Saturday

OS:Schedule:Day,
  {eea87bfe-c74f-48fa-8b50-ecf2f2b0fe7f}, !- Handle
  Medium Office Number of People Saturday Schedule, !- Name
  {480b9397-0d1d-432e-9e1b-5b1ce1318b19}, !- Schedule Type Limits Name
  ,                                       !- Interpolate to Timestep
  6,                                      !- Hour 1
  0,                                      !- Minute 1
  0,                                      !- Value Until Time 1
  8,                                      !- Hour 2
  0,                                      !- Minute 2
  0.1,                                    !- Value Until Time 2
  14,                                     !- Hour 3
  0,                                      !- Minute 3
  0.5,                                    !- Value Until Time 3
  17,                                     !- Hour 4
  0,                                      !- Minute 4
  0.1,                                    !- Value Until Time 4
  24,                                     !- Hour 5
  0,                                      !- Minute 5
  0;                                      !- Value Until Time 5

OS:ScheduleTypeLimits,
  {480b9397-0d1d-432e-9e1b-5b1ce1318b19}, !- Handle
  Fractional,                             !- Name
  0,                                      !- Lower Limit Value {BasedOnField A4}
  1,                                      !- Upper Limit Value {BasedOnField A4}
  Continuous;                             !- Numeric Type

OS:Schedule:Ruleset,
  {52563333-dff7-4955-b093-cb6bf74137f1}, !- Handle
  Medium Office People Activity Level Schedule, !- Name
  {8a952288-44f3-4369-9277-86ef8f6500a1}, !- Schedule Type Limits Name
  {29b5c415-51fd-459d-9f49-48b4eb90bb54}; !- Default Day Schedule Name

OS:Schedule:Day,
  {29b5c415-51fd-459d-9f49-48b4eb90bb54}, !- Handle
  Medium Office People Activity Level All Days Schedule, !- Name
  {8a952288-44f3-4369-9277-86ef8f6500a1}, !- Schedule Type Limits Name
  ,                                       !- Interpolate to Timestep
  24,                                     !- Hour 1
  0,                                      !- Minute 1
  120;                                    !- Value Until Time 1

OS:ScheduleTypeLimits,
  {8a952288-44f3-4369-9277-86ef8f6500a1}, !- Handle
  ActivityLevel,                          !- Name
  0,                                      !- Lower Limit Value {BasedOnField A4}
  ,                                       !- Upper Limit Value {BasedOnField A4}
  Continuous,                             !- Numeric Type
  ActivityLevel;                          !- Unit Type

OS:Schedule:Ruleset,
  {58a96b2a-8174-4331-bb6b-72510d43674c}, !- Handle
  Medium Office Lighting Schedule,        !- Name
  {480b9397-0d1d-432e-9e1b-5b1ce1318b19}, !- Schedule Type Limits Name
  {f4c49144-1cc6-4e0b-8fce-2e825c0a64be}, !- Default Day Schedule Name
  {4ba48a34-c3a5-4679-8409-9f0e67631a33}, !- Summer Design Day Schedule Name
  {c45e08a5-14fd-41f8-a0bf-69818dcdd8ee}; !- Winter Design Day Schedule Name

OS:Schedule:Day,
  {f4c49144-1cc6-4e0b-8fce-2e825c0a64be}, !- Handle
  Medium Office Lighting All Other Days Schedule, !- Name
  {480b9397-0d1d-432e-9e1b-5b1ce1318b19}, !- Schedule Type Limits Name
  ,                                       !- Interpolate to Timestep
  24,                                     !- Hour 1
  0,                                      !- Minute 1
  0.05;                                   !- Value Until Time 1

OS:Schedule:Day,
  {ed63442d-a82a-4d73-97c9-d2cf19a0ff03}, !- Handle
  Medium Office Lighting Summer Design Day Schedule, !- Name
  ,                                       !- Schedule Type Limits Name
  ,                                       !- Interpolate to Timestep
  6,                                      !- Hour 1
  0,                                      !- Minute 1
  1,                                      !- Value Until Time 1
  24,                                     !- Hour 2
  0,                                      !- Minute 2
  0;                                      !- Value Until Time 2

OS:Schedule:Day,
  {4ba48a34-c3a5-4679-8409-9f0e67631a33}, !- Handle
  Medium Office Lighting Summer Design Day Schedule 1, !- Name
  {480b9397-0d1d-432e-9e1b-5b1ce1318b19}, !- Schedule Type Limits Name
  ,                                       !- Interpolate to Timestep
  6,                                      !- Hour 1
  0,                                      !- Minute 1
  1,                                      !- Value Until Time 1
  24,                                     !- Hour 2
  0,                                      !- Minute 2
  0;                                      !- Value Until Time 2

OS:Schedule:Day,
  {70837326-e413-4195-ab60-fe17d2e83d85}, !- Handle
  Medium Office Lighting Winter Design Day Schedule, !- Name
  ,                                       !- Schedule Type Limits Name
  ,                                       !- Interpolate to Timestep
  24,                                     !- Hour 1
  0,                                      !- Minute 1
  0;                                      !- Value Until Time 1

OS:Schedule:Day,
  {c45e08a5-14fd-41f8-a0bf-69818dcdd8ee}, !- Handle
  Medium Office Lighting Winter Design Day Schedule 1, !- Name
  {480b9397-0d1d-432e-9e1b-5b1ce1318b19}, !- Schedule Type Limits Name
  ,                                       !- Interpolate to Timestep
  24,                                     !- Hour 1
  0,                                      !- Minute 1
  0;                                      !- Value Until Time 1

OS:Schedule:Rule,
  {f25d7471-0176-488a-aa54-a1b4df92f3cf}, !- Handle
  Medium Office Lighting Schedule Weekdays Rule, !- Name
  {58a96b2a-8174-4331-bb6b-72510d43674c}, !- Schedule Ruleset Name
  1,                                      !- Rule Order
  {385d4a12-a345-4415-a11e-aea476bb75fc}, !- Day Schedule Name
  ,                                       !- Apply Sunday
  Yes,                                    !- Apply Monday
  Yes,                                    !- Apply Tuesday
  Yes,                                    !- Apply Wednesday
  Yes,                                    !- Apply Thursday
  Yes;                                    !- Apply Friday

OS:Schedule:Day,
  {385d4a12-a345-4415-a11e-aea476bb75fc}, !- Handle
  Medium Office Lighting Weekdays Schedule, !- Name
  {480b9397-0d1d-432e-9e1b-5b1ce1318b19}, !- Schedule Type Limits Name
  ,                                       !- Interpolate to Timestep
  5,                                      !- Hour 1
  0,                                      !- Minute 1
  0.05,                                   !- Value Until Time 1
  7,                                      !- Hour 2
  0,                                      !- Minute 2
  0.1,                                    !- Value Until Time 2
  8,                                      !- Hour 3
  0,                                      !- Minute 3
  0.3,                                    !- Value Until Time 3
  17,                                     !- Hour 4
  0,                                      !- Minute 4
  0.9,                                    !- Value Until Time 4
  18,                                     !- Hour 5
  0,                                      !- Minute 5
  0.7,                                    !- Value Until Time 5
  20,                                     !- Hour 6
  0,                                      !- Minute 6
  0.5,                                    !- Value Until Time 6
  22,                                     !- Hour 7
  0,                                      !- Minute 7
  0.3,                                    !- Value Until Time 7
  23,                                     !- Hour 8
  0,                                      !- Minute 8
  0.1,                                    !- Value Until Time 8
  24,                                     !- Hour 9
  0,                                      !- Minute 9
  0.05;                                   !- Value Until Time 9

OS:Schedule:Rule,
  {719f5e7a-9883-4c8c-9660-6e19cdfd2407}, !- Handle
  Medium Office Lighting Schedule Saturday Rule, !- Name
  {58a96b2a-8174-4331-bb6b-72510d43674c}, !- Schedule Ruleset Name
  0,                                      !- Rule Order
  {a29d9ec2-7baf-40b0-9f86-30c68353eb99}, !- Day Schedule Name
  ,                                       !- Apply Sunday
  ,                                       !- Apply Monday
  ,                                       !- Apply Tuesday
  ,                                       !- Apply Wednesday
  ,                                       !- Apply Thursday
  ,                                       !- Apply Friday
  Yes;                                    !- Apply Saturday

OS:Schedule:Day,
  {a29d9ec2-7baf-40b0-9f86-30c68353eb99}, !- Handle
  Medium Office Lighting Saturday Schedule, !- Name
  {480b9397-0d1d-432e-9e1b-5b1ce1318b19}, !- Schedule Type Limits Name
  ,                                       !- Interpolate to Timestep
  6,                                      !- Hour 1
  0,                                      !- Minute 1
  0.05,                                   !- Value Until Time 1
  8,                                      !- Hour 2
  0,                                      !- Minute 2
  0.1,                                    !- Value Until Time 2
  14,                                     !- Hour 3
  0,                                      !- Minute 3
  0.5,                                    !- Value Until Time 3
  17,                                     !- Hour 4
  0,                                      !- Minute 4
  0.15,                                   !- Value Until Time 4
  24,                                     !- Hour 5
  0,                                      !- Minute 5
  0.05;                                   !- Value Until Time 5

OS:Schedule:Ruleset,
  {0a2b88e8-3702-4536-9148-5ff34547800f}, !- Handle
  Medium Office Electric Equipment Schedule, !- Name
  {480b9397-0d1d-432e-9e1b-5b1ce1318b19}, !- Schedule Type Limits Name
  {8342a56c-56b7-4fc4-bcfc-573899b7e56a}, !- Default Day Schedule Name
  {1c752a26-8cda-4762-905a-807ebc87ef8d}, !- Summer Design Day Schedule Name
  {356645e9-d595-45a3-a2a6-7c8d8bbb32dc}; !- Winter Design Day Schedule Name

OS:Schedule:Day,
  {8342a56c-56b7-4fc4-bcfc-573899b7e56a}, !- Handle
  Medium Office Electric Equipment All Other Days Schedule, !- Name
  {480b9397-0d1d-432e-9e1b-5b1ce1318b19}, !- Schedule Type Limits Name
  ,                                       !- Interpolate to Timestep
  24,                                     !- Hour 1
  0,                                      !- Minute 1
  0.3;                                    !- Value Until Time 1

OS:Schedule:Day,
  {0b517f87-3c3d-471d-bae4-e3e14ef4e645}, !- Handle
  Medium Office Electric Equipment Summer Design Day Schedule, !- Name
  ,                                       !- Schedule Type Limits Name
  ,                                       !- Interpolate to Timestep
  6,                                      !- Hour 1
  0,                                      !- Minute 1
  1,                                      !- Value Until Time 1
  24,                                     !- Hour 2
  0,                                      !- Minute 2
  0;                                      !- Value Until Time 2

OS:Schedule:Day,
  {1c752a26-8cda-4762-905a-807ebc87ef8d}, !- Handle
  Medium Office Electric Equipment Summer Design Day Schedule 1, !- Name
  {480b9397-0d1d-432e-9e1b-5b1ce1318b19}, !- Schedule Type Limits Name
  ,                                       !- Interpolate to Timestep
  6,                                      !- Hour 1
  0,                                      !- Minute 1
  1,                                      !- Value Until Time 1
  24,                                     !- Hour 2
  0,                                      !- Minute 2
  0;                                      !- Value Until Time 2

OS:Schedule:Day,
  {e305dd32-edbd-4961-95b3-cbdbafc36870}, !- Handle
  Medium Office Electric Equipment Winter Design Day Schedule, !- Name
  ,                                       !- Schedule Type Limits Name
  ,                                       !- Interpolate to Timestep
  24,                                     !- Hour 1
  0,                                      !- Minute 1
  0;                                      !- Value Until Time 1

OS:Schedule:Day,
  {356645e9-d595-45a3-a2a6-7c8d8bbb32dc}, !- Handle
  Medium Office Electric Equipment Winter Design Day Schedule 1, !- Name
  {480b9397-0d1d-432e-9e1b-5b1ce1318b19}, !- Schedule Type Limits Name
  ,                                       !- Interpolate to Timestep
  24,                                     !- Hour 1
  0,                                      !- Minute 1
  0;                                      !- Value Until Time 1

OS:Schedule:Rule,
  {ac8b9a5b-a3e3-405c-ba6d-2818bcee8234}, !- Handle
  Medium Office Electric Equipment Schedule Weekdays Rule, !- Name
  {0a2b88e8-3702-4536-9148-5ff34547800f}, !- Schedule Ruleset Name
  1,                                      !- Rule Order
  {ab977706-de24-48a8-9781-b8134cce9bcf}, !- Day Schedule Name
  ,                                       !- Apply Sunday
  Yes,                                    !- Apply Monday
  Yes,                                    !- Apply Tuesday
  Yes,                                    !- Apply Wednesday
  Yes,                                    !- Apply Thursday
  Yes;                                    !- Apply Friday

OS:Schedule:Day,
  {ab977706-de24-48a8-9781-b8134cce9bcf}, !- Handle
  Medium Office Electric Equipment Weekdays Schedule, !- Name
  {480b9397-0d1d-432e-9e1b-5b1ce1318b19}, !- Schedule Type Limits Name
  ,                                       !- Interpolate to Timestep
  8,                                      !- Hour 1
  0,                                      !- Minute 1
  0.4,                                    !- Value Until Time 1
  12,                                     !- Hour 2
  0,                                      !- Minute 2
  0.9,                                    !- Value Until Time 2
  13,                                     !- Hour 3
  0,                                      !- Minute 3
  0.8,                                    !- Value Until Time 3
  17,                                     !- Hour 4
  0,                                      !- Minute 4
  0.9,                                    !- Value Until Time 4
  18,                                     !- Hour 5
  0,                                      !- Minute 5
  0.8,                                    !- Value Until Time 5
  20,                                     !- Hour 6
  0,                                      !- Minute 6
  0.6,                                    !- Value Until Time 6
  22,                                     !- Hour 7
  0,                                      !- Minute 7
  0.5,                                    !- Value Until Time 7
  24,                                     !- Hour 8
  0,                                      !- Minute 8
  0.4;                                    !- Value Until Time 8

OS:Schedule:Rule,
  {df146f62-a37a-4974-ab92-7eaa6ac535a6}, !- Handle
  Medium Office Electric Equipment Schedule Saturday Rule, !- Name
  {0a2b88e8-3702-4536-9148-5ff34547800f}, !- Schedule Ruleset Name
  0,                                      !- Rule Order
  {d17cf4c6-7aa8-45d9-9f9b-d1f9581d7d3c}, !- Day Schedule Name
  ,                                       !- Apply Sunday
  ,                                       !- Apply Monday
  ,                                       !- Apply Tuesday
  ,                                       !- Apply Wednesday