
OS:Version,
  {38c45ead-b9b4-4935-87cc-440f944798fe}, !- Handle
  1.9.5;                                  !- Version Identifier

OS:SimulationControl,
  {44254cca-a012-4a3a-bbf7-ee13f051e297}, !- Handle
  Yes,                                    !- Do Zone Sizing Calculation
  Yes,                                    !- Do System Sizing Calculation
  ,                                       !- Do Plant Sizing Calculation
  No,                                     !- Run Simulation for Sizing Periods
  Yes;                                    !- Run Simulation for Weather File Run Periods

OS:Timestep,
  {b8b6df8b-8646-4d0f-a8a6-1349a9ea1607}, !- Handle
  6;                                      !- Number of Timesteps per Hour

OS:RunPeriod,
  {0dc92ea3-35ff-4591-8886-950e6bc9cb3d}, !- Handle
  Run Period 1,                           !- Name
  1,                                      !- Begin Month
  1,                                      !- Begin Day of Month
  12,                                     !- End Month
  31,                                     !- End Day of Month
  No,                                     !- Use Weather File Holidays and Special Days
  No,                                     !- Use Weather File Daylight Saving Period
  No,                                     !- Apply Weekend Holiday Rule
  Yes,                                    !- Use Weather File Rain Indicators
  Yes,                                    !- Use Weather File Snow Indicators
  1;                                      !- Number of Times Runperiod to be Repeated

OS:SurfaceConvectionAlgorithm:Inside,
  {e71ff2fc-df29-40fd-b477-c8830b2e523e}, !- Handle
  TARP;                                   !- Algorithm

OS:SurfaceConvectionAlgorithm:Outside,
  {4fbd43a6-3ac0-463b-9c8c-690bdb815a9b}, !- Handle
  DOE-2;                                  !- Algorithm

OS:HeatBalanceAlgorithm,
  {25b3919c-ba6e-421e-ab46-2528e9e70ea1}, !- Handle
  ConductionTransferFunction,             !- Algorithm
  200;                                    !- Surface Temperature Upper Limit {C}

OS:ZoneAirHeatBalanceAlgorithm,
  {91bb5d25-8f6a-42d8-8ec5-fa0621e07e5d}, !- Handle
  ThirdOrderBackwardDifference;           !- Algorithm

OS:ConvergenceLimits,
  {52be9b89-7389-46d6-b129-160414005506}, !- Handle
  1;                                      !- Minimum System Timestep {minutes}

OS:ShadowCalculation,
  {91e32aa5-4247-4bfd-8b9f-708236805931}, !- Handle
  20,                                     !- Calculation Frequency
  15000;                                  !- Maximum Figures in Shadow Overlap Calculations

OS:Site,
  {7cf8867f-a423-4f49-b80e-2ac86c5afe4b}, !- Handle
  Site 1,                                 !- Name
  41.77,                                  !- Latitude {deg}
  -87.75,                                 !- Longitude {deg}
  -6,                                     !- Time Zone {hr}
  190,                                    !- Elevation {m}
  ;                                       !- Terrain

OS:Site:GroundTemperature:BuildingSurface,
  {bc705db4-f586-46fc-9019-e9f32c774fe4}, !- Handle
  19.527,                                 !- January Ground Temperature {C}
  19.502,                                 !- February Ground Temperature {C}
  19.536,                                 !- March Ground Temperature {C}
  19.598,                                 !- April Ground Temperature {C}
  20.002,                                 !- May Ground Temperature {C}
  21.64,                                  !- June Ground Temperature {C}
  22.225,                                 !- July Ground Temperature {C}
  22.375,                                 !- August Ground Temperature {C}
  21.449,                                 !- September Ground Temperature {C}
  20.121,                                 !- October Ground Temperature {C}
  19.802,                                 !- November Ground Temperature {C}
  19.633;                                 !- December Ground Temperature {C}

OS:Site:WaterMainsTemperature,
  {b6f09a06-fb07-4393-8ded-3f4b3f65d553}, !- Handle
  Correlation,                            !- Calculation Method
  ,                                       !- Temperature Schedule Name
  9.69,                                   !- Annual Average Outdoor Air Temperature {C}
  28.1;                                   !- Maximum Difference In Monthly Average Outdoor Air Temperatures {deltaC}

OS:SizingPeriod:DesignDay,
  {c58b926e-6684-4e2f-bcea-3bc5b92dc123}, !- Handle
  Sizing Period Design Day 1,             !- Name
  -20.6,                                  !- Maximum Dry-Bulb Temperature {C}
  0,                                      !- Daily Dry-Bulb Temperature Range {deltaC}
  -20.6,                                  !- Humidity Indicating Conditions at Maximum Dry-Bulb {BasedOnField A3}
  99063,                                  !- Barometric Pressure {Pa}
  4.9,                                    !- Wind Speed {m/s}
  270,                                    !- Wind Direction {deg}
  0,                                      !- Sky Clearness
  0,                                      !- Rain Indicator
  0,                                      !- Snow Indicator
  21,                                     !- Day of Month
  1,                                      !- Month
  WinterDesignDay,                        !- Day Type
  0,                                      !- Daylight Saving Time Indicator
  WetBulb,                                !- Humidity Indicating Type
  ,                                       !- Humidity Indicating Day Schedule Name
  DefaultMultipliers,                     !- Dry-Bulb Temperature Range Modifier Type
  ,                                       !- Dry-Bulb Temperature Range Modifier Schedule Name
  AshraeClearSky;                         !- Solar Model Indicator

OS:SizingPeriod:DesignDay,
  {8b883490-416a-46b4-a504-90197b5f0a39}, !- Handle
  Sizing Period Design Day 2,             !- Name
  33.2,                                   !- Maximum Dry-Bulb Temperature {C}
  10.7,                                   !- Daily Dry-Bulb Temperature Range {deltaC}
  23.8,                                   !- Humidity Indicating Conditions at Maximum Dry-Bulb {BasedOnField A3}
  99063,                                  !- Barometric Pressure {Pa}
  5.3,                                    !- Wind Speed {m/s}
  230,                                    !- Wind Direction {deg}
  1,                                      !- Sky Clearness
  0,                                      !- Rain Indicator
  0,                                      !- Snow Indicator
  21,                                     !- Day of Month
  7,                                      !- Month
  SummerDesignDay,                        !- Day Type
  0,                                      !- Daylight Saving Time Indicator
  WetBulb,                                !- Humidity Indicating Type
  ,                                       !- Humidity Indicating Day Schedule Name
  DefaultMultipliers,                     !- Dry-Bulb Temperature Range Modifier Type
  ,                                       !- Dry-Bulb Temperature Range Modifier Schedule Name
  AshraeClearSky;                         !- Solar Model Indicator

OS:ScheduleTypeLimits,
  {e27d6fa8-8b7d-4c5f-b2ee-e11bdbdb6862}, !- Handle
  Temperature,                            !- Name
  -60,                                    !- Lower Limit Value {BasedOnField A4}
  200,                                    !- Upper Limit Value {BasedOnField A4}
  CONTINUOUS,                             !- Numeric Type
  Temperature;                            !- Unit Type

OS:DefaultScheduleSet,
  {83504e87-5611-43b2-9393-25e89fae7719}, !- Handle
  Default Schedules,                      !- Name
  ,                                       !- Hours of Operation Schedule Name
  {a70b7af5-af93-4e8a-8abf-604966a91ac6}, !- Number of People Schedule Name
  {036e0fa7-d177-4a0d-a652-f2faef9cd5e2}, !- People Activity Level Schedule Name
  {017ace29-3e67-4043-a8c2-9f162067e133}, !- Lighting Schedule Name
  {c87d4c52-d104-47eb-b9f2-213ed4a26968}, !- Electric Equipment Schedule Name
  {ae81e5a0-797d-440e-af08-eb9bfc16156a}, !- Gas Equipment Schedule Name
  {b75e163e-6436-4a09-8e0f-986b5fee4090}, !- Hot Water Equipment Schedule Name
  {3fdf4fcb-59be-496d-b5d2-73f6ea2fc726}, !- Infiltration Schedule Name
  ,                                       !- Steam Equipment Schedule Name
  ;                                       !- Other Equipment Schedule Name

OS:Schedule:Ruleset,
  {a70b7af5-af93-4e8a-8abf-604966a91ac6}, !- Handle
  Medium Office Number of People Schedule, !- Name
  {869e2e82-2bfa-45ac-a715-8c581b0891fc}, !- Schedule Type Limits Name
  {69c2f03e-394b-4c79-9407-510715864ef4}, !- Default Day Schedule Name
  {0a8d8710-7640-4800-afb8-cc3df35fbb68}; !- Summer Design Day Schedule Name

OS:Schedule:Day,
  {69c2f03e-394b-4c79-9407-510715864ef4}, !- Handle
  Medium Office Number of People All Other Days Schedule, !- Name
  {869e2e82-2bfa-45ac-a715-8c581b0891fc}, !- Schedule Type Limits Name
  ,                                       !- Interpolate to Timestep
  24,                                     !- Hour 1
  0,                                      !- Minute 1
  0;                                      !- Value Until Time 1

OS:Schedule:Day,
  {274a4dbe-773a-4434-925a-f6a9405a1330}, !- Handle
  Medium Office Number of People Summer Design Day Schedule, !- Name
  ,                                       !- Schedule Type Limits Name
  ,                                       !- Interpolate to Timestep
  6,                                      !- Hour 1
  0,                                      !- Minute 1
  0,                                      !- Value Until Time 1
  22,                                     !- Hour 2
  0,                                      !- Minute 2
  1,                                      !- Value Until Time 2
  24,                                     !- Hour 3
  0,                                      !- Minute 3
  0.05;                                   !- Value Until Time 3

OS:Schedule:Day,
  {0a8d8710-7640-4800-afb8-cc3df35fbb68}, !- Handle
  Medium Office Number of People Summer Design Day Schedule 1, !- Name
  {869e2e82-2bfa-45ac-a715-8c581b0891fc}, !- Schedule Type Limits Name
  ,                                       !- Interpolate to Timestep
  6,                                      !- Hour 1
  0,                                      !- Minute 1
  0,                                      !- Value Until Time 1
  22,                                     !- Hour 2
  0,                                      !- Minute 2
  1,                                      !- Value Until Time 2
  24,                                     !- Hour 3
  0,                                      !- Minute 3
  0.05;                                   !- Value Until Time 3

OS:Schedule:Rule,
  {4be0f5d0-679c-4a7a-86a8-f24e28cb8058}, !- Handle
  Medium Office Number of People Schedule Weekdays Rule, !- Name
  {a70b7af5-af93-4e8a-8abf-604966a91ac6}, !- Schedule Ruleset Name
  1,                                      !- Rule Order
  {1b4a747e-9710-48f6-8128-1df13649232f}, !- Day Schedule Name
  ,                                       !- Apply Sunday
  Yes,                                    !- Apply Monday
  Yes,                                    !- Apply Tuesday
  Yes,                                    !- Apply Wednesday
  Yes,                                    !- Apply Thursday
  Yes;                                    !- Apply Friday

OS:Schedule:Day,
  {1b4a747e-9710-48f6-8128-1df13649232f}, !- Handle
  Medium Office Number of People Weekdays Schedule, !- Name
  {869e2e82-2bfa-45ac-a715-8c581b0891fc}, !- Schedule Type Limits Name
  ,                                       !- Interpolate to Timestep
  6,                                      !- Hour 1
  0,                                      !- Minute 1
  0,                                      !- Value Until Time 1
  7,                                      !- Hour 2
  0,                                      !- Minute 2
  0.1,                                    !- Value Until Time 2
  8,                                      !- Hour 3
  0,                                      !- Minute 3
  0.2,                                    !- Value Until Time 3
  12,                                     !- Hour 4
  0,                                      !- Minute 4
  0.95,                                   !- Value Until Time 4
  13,                                     !- Hour 5
  0,                                      !- Minute 5
  0.5,                                    !- Value Until Time 5
  17,                                     !- Hour 6
  0,                                      !- Minute 6
  0.95,                                   !- Value Until Time 6
  18,                                     !- Hour 7
  0,                                      !- Minute 7
  0.7,                                    !- Value Until Time 7
  20,                                     !- Hour 8
  0,                                      !- Minute 8
  0.4,                                    !- Value Until Time 8
  22,                                     !- Hour 9
  0,                                      !- Minute 9
  0.1,                                    !- Value Until Time 9
  24,                                     !- Hour 10
  0,                                      !- Minute 10
  0.05;                                   !- Value Until Time 10

OS:Schedule:Rule,
  {eac7e7cc-1676-4fdc-baf8-b50bb59a5fe1}, !- Handle
  Medium Office Number of People Schedule Saturday Rule, !- Name
  {a70b7af5-af93-4e8a-8abf-604966a91ac6}, !- Schedule Ruleset Name
  0,                                      !- Rule Order
  {ea05b208-dc9e-4e6b-866f-65f650b2dbf4}, !- Day Schedule Name
  ,                                       !- Apply Sunday
  ,                                       !- Apply Monday
  ,                                       !- Apply Tuesday
  ,                                       !- Apply Wednesday
  ,                                       !- Apply Thursday
  ,                                       !- Apply Friday
  Yes;                                    !- Apply Saturday

OS:Schedule:Day,
  {ea05b208-dc9e-4e6b-866f-65f650b2dbf4}, !- Handle
  Medium Office Number of People Saturday Schedule, !- Name
  {869e2e82-2bfa-45ac-a715-8c581b0891fc}, !- Schedule Type Limits Name
  ,                                       !- Interpolate to Timestep
  6,                                      !- Hour 1
  0,                                      !- Minute 1
  0,                                      !- Value Until Time 1
  8,                                      !- Hour 2
  0,                                      !- Minute 2
  0.1,                                    !- Value Until Time 2
  14,                                     !- Hour 3
  0,                                      !- Minute 3
  0.5,                                    !- Value Until Time 3
  17,                                     !- Hour 4
  0,                                      !- Minute 4
  0.1,                                    !- Value Until Time 4
  24,                                     !- Hour 5
  0,                                      !- Minute 5
  0;                                      !- Value Until Time 5

OS:ScheduleTypeLimits,
  {869e2e82-2bfa-45ac-a715-8c581b0891fc}, !- Handle
  Fractional,                             !- Name
  0,                                      !- Lower Limit Value {BasedOnField A4}
  1,                                      !- Upper Limit Value {BasedOnField A4}
  Continuous;                             !- Numeric Type

OS:Schedule:Ruleset,
  {036e0fa7-d177-4a0d-a652-f2faef9cd5e2}, !- Handle
  Medium Office People Activity Level Schedule, !- Name
  {ac18ff80-ecf3-429a-a633-10fe00d85d9a}, !- Schedule Type Limits Name
  {825d8b01-a262-4f78-8071-86aeaa2fe02e}; !- Default Day Schedule Name

OS:Schedule:Day,
  {825d8b01-a262-4f78-8071-86aeaa2fe02e}, !- Handle
  Medium Office People Activity Level All Days Schedule, !- Name
  {ac18ff80-ecf3-429a-a633-10fe00d85d9a}, !- Schedule Type Limits Name
  ,                                       !- Interpolate to Timestep
  24,                                     !- Hour 1
  0,                                      !- Minute 1
  120;                                    !- Value Until Time 1

OS:ScheduleTypeLimits,
  {ac18ff80-ecf3-429a-a633-10fe00d85d9a}, !- Handle
  ActivityLevel,                          !- Name
  0,                                      !- Lower Limit Value {BasedOnField A4}
  ,                                       !- Upper Limit Value {BasedOnField A4}
  Continuous,                             !- Numeric Type
  ActivityLevel;                          !- Unit Type

OS:Schedule:Ruleset,
  {017ace29-3e67-4043-a8c2-9f162067e133}, !- Handle
  Medium Office Lighting Schedule,        !- Name
  {869e2e82-2bfa-45ac-a715-8c581b0891fc}, !- Schedule Type Limits Name
  {49f8e50c-7cd5-4184-b8ef-cd375670e831}, !- Default Day Schedule Name
  {4f9574ef-53d2-4654-acbd-7a6281c21a30}, !- Summer Design Day Schedule Name
  {3e0041ce-b6a9-4eaa-bd5e-31f550443656}; !- Winter Design Day Schedule Name

OS:Schedule:Day,
  {49f8e50c-7cd5-4184-b8ef-cd375670e831}, !- Handle
  Medium Office Lighting All Other Days Schedule, !- Name
  {869e2e82-2bfa-45ac-a715-8c581b0891fc}, !- Schedule Type Limits Name
  ,                                       !- Interpolate to Timestep
  24,                                     !- Hour 1
  0,                                      !- Minute 1
  0.05;                                   !- Value Until Time 1

OS:Schedule:Day,
  {9d446ebb-be11-41ff-b9ab-e764e22d0216}, !- Handle
  Medium Office Lighting Summer Design Day Schedule, !- Name
  ,                                       !- Schedule Type Limits Name
  ,                                       !- Interpolate to Timestep
  6,                                      !- Hour 1
  0,                                      !- Minute 1
  1,                                      !- Value Until Time 1
  24,                                     !- Hour 2
  0,                                      !- Minute 2
  0;                                      !- Value Until Time 2

OS:Schedule:Day,
  {4f9574ef-53d2-4654-acbd-7a6281c21a30}, !- Handle
  Medium Office Lighting Summer Design Day Schedule 1, !- Name
  {869e2e82-2bfa-45ac-a715-8c581b0891fc}, !- Schedule Type Limits Name
  ,                                       !- Interpolate to Timestep
  6,                                      !- Hour 1
  0,                                      !- Minute 1
  1,                                      !- Value Until Time 1
  24,                                     !- Hour 2
  0,                                      !- Minute 2
  0;                                      !- Value Until Time 2

OS:Schedule:Day,
  {d815f714-e1b9-46cb-ba24-5579581e2288}, !- Handle
  Medium Office Lighting Winter Design Day Schedule, !- Name
  ,                                       !- Schedule Type Limits Name
  ,                                       !- Interpolate to Timestep
  24,                                     !- Hour 1
  0,                                      !- Minute 1
  0;                                      !- Value Until Time 1

OS:Schedule:Day,
  {3e0041ce-b6a9-4eaa-bd5e-31f550443656}, !- Handle
  Medium Office Lighting Winter Design Day Schedule 1, !- Name
  {869e2e82-2bfa-45ac-a715-8c581b0891fc}, !- Schedule Type Limits Name
  ,                                       !- Interpolate to Timestep
  24,                                     !- Hour 1
  0,                                      !- Minute 1
  0;                                      !- Value Until Time 1

OS:Schedule:Rule,
  {fa16cd2f-29d4-44f3-8b98-5dc6224f64e2}, !- Handle
  Medium Office Lighting Schedule Weekdays Rule, !- Name
  {017ace29-3e67-4043-a8c2-9f162067e133}, !- Schedule Ruleset Name
  1,                                      !- Rule Order
  {9f2b5eca-954a-41c2-9404-3250d155518e}, !- Day Schedule Name
  ,                                       !- Apply Sunday
  Yes,                                    !- Apply Monday
  Yes,                                    !- Apply Tuesday
  Yes,                                    !- Apply Wednesday
  Yes,                                    !- Apply Thursday
  Yes;                                    !- Apply Friday

OS:Schedule:Day,
  {9f2b5eca-954a-41c2-9404-3250d155518e}, !- Handle
  Medium Office Lighting Weekdays Schedule, !- Name
  {869e2e82-2bfa-45ac-a715-8c581b0891fc}, !- Schedule Type Limits Name
  ,                                       !- Interpolate to Timestep
  5,                                      !- Hour 1
  0,                                      !- Minute 1
  0.05,                                   !- Value Until Time 1
  7,                                      !- Hour 2
  0,                                      !- Minute 2
  0.1,                                    !- Value Until Time 2
  8,                                      !- Hour 3
  0,                                      !- Minute 3
  0.3,                                    !- Value Until Time 3
  17,                                     !- Hour 4
  0,                                      !- Minute 4
  0.9,                                    !- Value Until Time 4
  18,                                     !- Hour 5
  0,                                      !- Minute 5
  0.7,                                    !- Value Until Time 5
  20,                                     !- Hour 6
  0,                                      !- Minute 6
  0.5,                                    !- Value Until Time 6
  22,                                     !- Hour 7
  0,                                      !- Minute 7
  0.3,                                    !- Value Until Time 7
  23,                                     !- Hour 8
  0,                                      !- Minute 8
  0.1,                                    !- Value Until Time 8
  24,                                     !- Hour 9
  0,                                      !- Minute 9
  0.05;                                   !- Value Until Time 9

OS:Schedule:Rule,
  {c90b9370-d015-483a-b691-1d356392cc7b}, !- Handle
  Medium Office Lighting Schedule Saturday Rule, !- Name
  {017ace29-3e67-4043-a8c2-9f162067e133}, !- Schedule Ruleset Name
  0,                                      !- Rule Order
  {a1d290d0-c5f1-4c59-9e08-3e4a8436a1e7}, !- Day Schedule Name
  ,                                       !- Apply Sunday
  ,                                       !- Apply Monday
  ,                                       !- Apply Tuesday
  ,                                       !- Apply Wednesday
  ,                                       !- Apply Thursday
  ,                                       !- Apply Friday
  Yes;                                    !- Apply Saturday

OS:Schedule:Day,
  {a1d290d0-c5f1-4c59-9e08-3e4a8436a1e7}, !- Handle
  Medium Office Lighting Saturday Schedule, !- Name
  {869e2e82-2bfa-45ac-a715-8c581b0891fc}, !- Schedule Type Limits Name
  ,                                       !- Interpolate to Timestep
  6,                                      !- Hour 1
  0,                                      !- Minute 1
  0.05,                                   !- Value Until Time 1
  8,                                      !- Hour 2
  0,                                      !- Minute 2
  0.1,                                    !- Value Until Time 2
  14,                                     !- Hour 3
  0,                                      !- Minute 3
  0.5,                                    !- Value Until Time 3
  17,                                     !- Hour 4
  0,                                      !- Minute 4
  0.15,                                   !- Value Until Time 4
  24,                                     !- Hour 5
  0,                                      !- Minute 5
  0.05;                                   !- Value Until Time 5

OS:Schedule:Ruleset,
  {c87d4c52-d104-47eb-b9f2-213ed4a26968}, !- Handle
  Medium Office Electric Equipment Schedule, !- Name
  {869e2e82-2bfa-45ac-a715-8c581b0891fc}, !- Schedule Type Limits Name
  {b25fb52c-c33a-4e0c-9e6c-420f11db8f08}, !- Default Day Schedule Name
  {dc458f42-3891-41a0-8bb1-8e1949c5264e}, !- Summer Design Day Schedule Name
  {8d13e646-c23b-4f01-b11e-21d379ddc008}; !- Winter Design Day Schedule Name

OS:Schedule:Day,
  {b25fb52c-c33a-4e0c-9e6c-420f11db8f08}, !- Handle
  Medium Office Electric Equipment All Other Days Schedule, !- Name
  {869e2e82-2bfa-45ac-a715-8c581b0891fc}, !- Schedule Type Limits Name
  ,                                       !- Interpolate to Timestep
  24,                                     !- Hour 1
  0,                                      !- Minute 1
  0.3;                                    !- Value Until Time 1

OS:Schedule:Day,
  {ad0c98c5-fd42-47f1-867f-69f3591ab57e}, !- Handle
  Medium Office Electric Equipment Summer Design Day Schedule, !- Name
  ,                                       !- Schedule Type Limits Name
  ,                                       !- Interpolate to Timestep
  6,                                      !- Hour 1
  0,                                      !- Minute 1
  1,                                      !- Value Until Time 1
  24,                                     !- Hour 2
  0,                                      !- Minute 2
  0;                                      !- Value Until Time 2

OS:Schedule:Day,
  {dc458f42-3891-41a0-8bb1-8e1949c5264e}, !- Handle
  Medium Office Electric Equipment Summer Design Day Schedule 1, !- Name
  {869e2e82-2bfa-45ac-a715-8c581b0891fc}, !- Schedule Type Limits Name
  ,                                       !- Interpolate to Timestep
  6,                                      !- Hour 1
  0,                                      !- Minute 1
  1,                                      !- Value Until Time 1
  24,                                     !- Hour 2
  0,                                      !- Minute 2
  0;                                      !- Value Until Time 2

OS:Schedule:Day,
  {b09bfcfa-df3d-4f58-b6b8-3cbf6fec17d1}, !- Handle
  Medium Office Electric Equipment Winter Design Day Schedule, !- Name
  ,                                       !- Schedule Type Limits Name
  ,                                       !- Interpolate to Timestep
  24,                                     !- Hour 1
  0,                                      !- Minute 1
  0;                                      !- Value Until Time 1

OS:Schedule:Day,
  {8d13e646-c23b-4f01-b11e-21d379ddc008}, !- Handle
  Medium Office Electric Equipment Winter Design Day Schedule 1, !- Name
  {869e2e82-2bfa-45ac-a715-8c581b0891fc}, !- Schedule Type Limits Name
  ,                                       !- Interpolate to Timestep
  24,                                     !- Hour 1
  0,                                      !- Minute 1
  0;                                      !- Value Until Time 1

OS:Schedule:Rule,
  {5982a4a2-4637-44ad-9ce8-7066e18e968e}, !- Handle
  Medium Office Electric Equipment Schedule Weekdays Rule, !- Name
  {c87d4c52-d104-47eb-b9f2-213ed4a26968}, !- Schedule Ruleset Name
  1,                                      !- Rule Order
  {0243cc6d-ab7f-4016-9871-3d6425eb8e15}, !- Day Schedule Name
  ,                                       !- Apply Sunday
  Yes,                                    !- Apply Monday
  Yes,                                    !- Apply Tuesday
  Yes,                                    !- Apply Wednesday
  Yes,                                    !- Apply Thursday
  Yes;                                    !- Apply Friday

OS:Schedule:Day,
  {0243cc6d-ab7f-4016-9871-3d6425eb8e15}, !- Handle
  Medium Office Electric Equipment Weekdays Schedule, !- Name
  {869e2e82-2bfa-45ac-a715-8c581b0891fc}, !- Schedule Type Limits Name
  ,                                       !- Interpolate to Timestep
  8,                                      !- Hour 1
  0,                                      !- Minute 1
  0.4,                                    !- Value Until Time 1
  12,                                     !- Hour 2
  0,                                      !- Minute 2
  0.9,                                    !- Value Until Time 2
  13,                                     !- Hour 3
  0,                                      !- Minute 3
  0.8,                                    !- Value Until Time 3
  17,                                     !- Hour 4
  0,                                      !- Minute 4
  0.9,                                    !- Value Until Time 4
  18,                                     !- Hour 5
  0,                                      !- Minute 5
  0.8,                                    !- Value Until Time 5
  20,                                     !- Hour 6
  0,                                      !- Minute 6
  0.6,                                    !- Value Until Time 6
  22,                                     !- Hour 7
  0,                                      !- Minute 7
  0.5,                                    !- Value Until Time 7
  24,                                     !- Hour 8
  0,                                      !- Minute 8
  0.4;                                    !- Value Until Time 8

OS:Schedule:Rule,
  {271d4a32-97cf-4f85-955e-ac24d4857052}, !- Handle
  Medium Office Electric Equipment Schedule Saturday Rule, !- Name
  {c87d4c52-d104-47eb-b9f2-213ed4a26968}, !- Schedule Ruleset Name
  0,                                      !- Rule Order
  {4940da0c-93eb-484b-8f8b-234f44a76122}, !- Day Schedule Name
  ,                                       !- Apply Sunday
  ,                                       !- Apply Monday