
OS:Version,
  {169a7f9b-edbb-4ab9-9049-c8a89a576edc}, !- Handle
  0.10.1;                                 !- Version Identifier

OS:SimulationControl,
  {6cad38a3-d0ca-40e6-b01d-fd7b3eef7d24}, !- Handle
  Yes,                                    !- Do Zone Sizing Calculation
  Yes,                                    !- Do System Sizing Calculation
  ,                                       !- Do Plant Sizing Calculation
  No,                                     !- Run Simulation for Sizing Periods
  Yes;                                    !- Run Simulation for Weather File Run Periods

OS:Timestep,
  {21c89201-db12-4b69-a6da-5894b4b8017b}, !- Handle
  6;                                      !- Number of Timesteps per Hour

OS:RunPeriod,
  {a540cfcd-4af7-4e65-8495-f683a88a5005}, !- Handle
  Run Period 1,                           !- Name
  1,                                      !- Begin Month
  1,                                      !- Begin Day of Month
  12,                                     !- End Month
  31,                                     !- End Day of Month
  No,                                     !- Use Weather File Holidays and Special Days
  No,                                     !- Use Weather File Daylight Saving Period
  No,                                     !- Apply Weekend Holiday Rule
  Yes,                                    !- Use Weather File Rain Indicators
  Yes,                                    !- Use Weather File Snow Indicators
  1;                                      !- Number of Times Runperiod to be Repeated

OS:SurfaceConvectionAlgorithm:Inside,
  {d44e4e9e-b03b-4f8e-b7f9-8fe1a6d53d44}, !- Handle
  TARP;                                   !- Algorithm

OS:SurfaceConvectionAlgorithm:Outside,
  {cda29186-b860-49a5-b40e-ebf74fface75}, !- Handle
  DOE-2;                                  !- Algorithm

OS:HeatBalanceAlgorithm,
  {31c0eed2-78b8-459b-ace2-4b231cea63dd}, !- Handle
  ConductionTransferFunction,             !- Algorithm
  200;                                    !- Surface Temperature Upper Limit {F}

OS:ZoneAirHeatBalanceAlgorithm,
  {e9b21b23-9297-44c8-bd96-c11719898c0c}, !- Handle
  AnalyticalSolution;                     !- Algorithm

OS:ConvergenceLimits,
  {3c9b4661-763b-4e13-b513-cd17324f7c03}; !- Handle

OS:ShadowCalculation,
  {fb337ce8-84cc-40f3-9aca-b6158fdda83f}, !- Handle
  7,                                      !- Calculation Frequency
  15000;                                  !- Maximum Figures in Shadow Overlap Calculations

OS:Site,
  {98e197f2-a63a-4b05-bf00-89fefad5a21f}, !- Handle
  Site 1,                                 !- Name
  41.77,                                  !- Latitude {deg}
  -87.75,                                 !- Longitude {deg}
  -6,                                     !- Time Zone {hr}
  190,                                    !- Elevation {m}
  ;                                       !- Terrain

OS:Site:GroundTemperature:BuildingSurface,
  {e5e752b6-2bbc-4220-895f-6ca1a083a377}, !- Handle
  19.527,                                 !- January Ground Temperature {C}
  19.502,                                 !- February Ground Temperature {C}
  19.536,                                 !- March Ground Temperature {C}
  19.598,                                 !- April Ground Temperature {C}
  20.002,                                 !- May Ground Temperature {C}
  21.64,                                  !- June Ground Temperature {C}
  22.225,                                 !- July Ground Temperature {C}
  22.375,                                 !- August Ground Temperature {C}
  21.449,                                 !- September Ground Temperature {C}
  20.121,                                 !- October Ground Temperature {C}
  19.802,                                 !- November Ground Temperature {C}
  19.633;                                 !- December Ground Temperature {C}

OS:Site:WaterMainsTemperature,
  {8694e1b6-6e07-4ce6-96ad-33a6790e1935}, !- Handle
  Correlation,                            !- Calculation Method
  ,                                       !- Temperature Schedule Name
  9.69,                                   !- Annual Average Outdoor Air Temperature {C}
  28.1;                                   !- Maximum Difference In Monthly Average Outdoor Air Temperatures {deltaC}

OS:SizingPeriod:DesignDay,
  {986149da-fd8d-46ec-9efc-4ce50a6ec587}, !- Handle
  Sizing Period Design Day 1,             !- Name
  -20.6,                                  !- Maximum Dry-Bulb Temperature {C}
  0,                                      !- Daily Dry-Bulb Temperature Range {deltaC}
  -20.6,                                  !- Humidity Indicating Conditions at Maximum Dry-Bulb {BasedOnField A3}
  99063,                                  !- Barometric Pressure {Pa}
  4.9,                                    !- Wind Speed {m/s}
  270,                                    !- Wind Direction {deg}
  0,                                      !- Sky Clearness
  0,                                      !- Rain Indicator
  0,                                      !- Snow Indicator
  21,                                     !- Day of Month
  1,                                      !- Month
  WinterDesignDay,                        !- Day Type
  0,                                      !- Daylight Saving Time Indicator
  WetBulb,                                !- Humidity Indicating Type
  ,                                       !- Humidity Indicating Day Schedule Name
  DefaultMultipliers,                     !- Dry-Bulb Temperature Range Modifier Type
  ,                                       !- Dry-Bulb Temperature Range Modifier Schedule Name
  AshraeClearSky;                         !- Solar Model Indicator

OS:SizingPeriod:DesignDay,
  {86a83ac9-f258-4062-829f-c33e6d077e87}, !- Handle
  Sizing Period Design Day 2,             !- Name
  33.2,                                   !- Maximum Dry-Bulb Temperature {C}
  10.7,                                   !- Daily Dry-Bulb Temperature Range {deltaC}
  23.8,                                   !- Humidity Indicating Conditions at Maximum Dry-Bulb {BasedOnField A3}
  99063,                                  !- Barometric Pressure {Pa}
  5.3,                                    !- Wind Speed {m/s}
  230,                                    !- Wind Direction {deg}
  1,                                      !- Sky Clearness
  0,                                      !- Rain Indicator
  0,                                      !- Snow Indicator
  21,                                     !- Day of Month
  7,                                      !- Month
  SummerDesignDay,                        !- Day Type
  0,                                      !- Daylight Saving Time Indicator
  WetBulb,                                !- Humidity Indicating Type
  ,                                       !- Humidity Indicating Day Schedule Name
  DefaultMultipliers,                     !- Dry-Bulb Temperature Range Modifier Type
  ,                                       !- Dry-Bulb Temperature Range Modifier Schedule Name
  AshraeClearSky;                         !- Solar Model Indicator

OS:ScheduleTypeLimits,
  {3eba43de-c343-411c-9333-218b11cca2d4}, !- Handle
  Temperature,                            !- Name
  -60,                                    !- Lower Limit Value {BasedOnField A4}
  200,                                    !- Upper Limit Value {BasedOnField A4}
  CONTINUOUS,                             !- Numeric Type
  Temperature;                            !- Unit Type

OS:DefaultScheduleSet,
  {f0ad1463-4a96-4995-8ffa-4ed80be0ad68}, !- Handle
  Default Schedules,                      !- Name
  ,                                       !- Hours of Operation Schedule Name
  {3b46709d-5837-4ef9-af28-e0edbb85338e}, !- Number of People Schedule Name
  {fb0e3ad7-2d79-4cfe-b5ce-198342d30e15}, !- People Activity Level Schedule Name
  {f00bdfb4-a8e1-4bf7-9ba8-ff4231683518}, !- Lighting Schedule Name
  {c88a394c-7f6d-4c11-91a0-302e5b535aef}, !- Electric Equipment Schedule Name
  {8bdead48-4cc3-45ba-8f4f-9ddd6dace336}, !- Gas Equipment Schedule Name
  {f6d75fff-3fdb-41d6-ac1c-e022c0fcd292}, !- Hot Water Equipment Schedule Name
  {2a01f46b-23f4-4f64-9f89-b8a2e3dfa096}, !- Infiltration Schedule Name
  ,                                       !- Steam Equipment Schedule Name
  ;                                       !- Other Equipment Schedule Name

OS:Schedule:Ruleset,
  {3b46709d-5837-4ef9-af28-e0edbb85338e}, !- Handle
  Medium Office Number of People Schedule, !- Name
  {21b96265-f1f2-4ff2-b477-3f805ce6c76d}, !- Schedule Type Limits Name
  {863c3120-f76a-4eeb-9ef7-77c225cf29bd}, !- Default Day Schedule Name
  {596f20d7-7de3-49db-aac1-ded7adecd8a1}; !- Summer Design Day Schedule Name

OS:Schedule:Day,
  {863c3120-f76a-4eeb-9ef7-77c225cf29bd}, !- Handle
  Medium Office Number of People All Other Days Schedule, !- Name
  {21b96265-f1f2-4ff2-b477-3f805ce6c76d}, !- Schedule Type Limits Name
  ,                                       !- Interpolate to Timestep
  24,                                     !- Hour 1
  0,                                      !- Minute 1
  0;                                      !- Value Until Time 1

OS:Schedule:Day,
  {56a210ef-af5e-4389-9d6a-6d96a136b416}, !- Handle
  Medium Office Number of People Summer Design Day Schedule, !- Name
  ,                                       !- Schedule Type Limits Name
  ,                                       !- Interpolate to Timestep
  6,                                      !- Hour 1
  0,                                      !- Minute 1
  0,                                      !- Value Until Time 1
  22,                                     !- Hour 2
  0,                                      !- Minute 2
  1,                                      !- Value Until Time 2
  24,                                     !- Hour 3
  0,                                      !- Minute 3
  0.05;                                   !- Value Until Time 3

OS:Schedule:Day,
  {596f20d7-7de3-49db-aac1-ded7adecd8a1}, !- Handle
  Medium Office Number of People Summer Design Day Schedule 1, !- Name
  {21b96265-f1f2-4ff2-b477-3f805ce6c76d}, !- Schedule Type Limits Name
  ,                                       !- Interpolate to Timestep
  6,                                      !- Hour 1
  0,                                      !- Minute 1
  0,                                      !- Value Until Time 1
  22,                                     !- Hour 2
  0,                                      !- Minute 2
  1,                                      !- Value Until Time 2
  24,                                     !- Hour 3
  0,                                      !- Minute 3
  0.05;                                   !- Value Until Time 3

OS:Schedule:Rule,
  {edb9e92d-e7c8-43ff-b632-dc3da5d475d2}, !- Handle
  Medium Office Number of People Schedule Weekdays Rule, !- Name
  {3b46709d-5837-4ef9-af28-e0edbb85338e}, !- Schedule Ruleset Name
  1,                                      !- Rule Order
  {08e197a1-dc6f-4620-a131-9e638e7a12cb}, !- Day Schedule Name
  ,                                       !- Apply Sunday
  Yes,                                    !- Apply Monday
  Yes,                                    !- Apply Tuesday
  Yes,                                    !- Apply Wednesday
  Yes,                                    !- Apply Thursday
  Yes;                                    !- Apply Friday

OS:Schedule:Day,
  {08e197a1-dc6f-4620-a131-9e638e7a12cb}, !- Handle
  Medium Office Number of People Weekdays Schedule, !- Name
  {21b96265-f1f2-4ff2-b477-3f805ce6c76d}, !- Schedule Type Limits Name
  ,                                       !- Interpolate to Timestep
  6,                                      !- Hour 1
  0,                                      !- Minute 1
  0,                                      !- Value Until Time 1
  7,                                      !- Hour 2
  0,                                      !- Minute 2
  0.1,                                    !- Value Until Time 2
  8,                                      !- Hour 3
  0,                                      !- Minute 3
  0.2,                                    !- Value Until Time 3
  12,                                     !- Hour 4
  0,                                      !- Minute 4
  0.95,                                   !- Value Until Time 4
  13,                                     !- Hour 5
  0,                                      !- Minute 5
  0.5,                                    !- Value Until Time 5
  17,                                     !- Hour 6
  0,                                      !- Minute 6
  0.95,                                   !- Value Until Time 6
  18,                                     !- Hour 7
  0,                                      !- Minute 7
  0.7,                                    !- Value Until Time 7
  20,                                     !- Hour 8
  0,                                      !- Minute 8
  0.4,                                    !- Value Until Time 8
  22,                                     !- Hour 9
  0,                                      !- Minute 9
  0.1,                                    !- Value Until Time 9
  24,                                     !- Hour 10
  0,                                      !- Minute 10
  0.05;                                   !- Value Until Time 10

OS:Schedule:Rule,
  {78d0b160-34ec-4fa2-9440-10bcf56635f0}, !- Handle
  Medium Office Number of People Schedule Saturday Rule, !- Name
  {3b46709d-5837-4ef9-af28-e0edbb85338e}, !- Schedule Ruleset Name
  0,                                      !- Rule Order
  {5c025ebd-e361-465e-bde5-92b295ed87c2}, !- Day Schedule Name
  ,                                       !- Apply Sunday
  ,                                       !- Apply Monday
  ,                                       !- Apply Tuesday
  ,                                       !- Apply Wednesday
  ,                                       !- Apply Thursday
  ,                                       !- Apply Friday
  Yes;                                    !- Apply Saturday

OS:Schedule:Day,
  {5c025ebd-e361-465e-bde5-92b295ed87c2}, !- Handle
  Medium Office Number of People Saturday Schedule, !- Name
  {21b96265-f1f2-4ff2-b477-3f805ce6c76d}, !- Schedule Type Limits Name
  ,                                       !- Interpolate to Timestep
  6,                                      !- Hour 1
  0,                                      !- Minute 1
  0,                                      !- Value Until Time 1
  8,                                      !- Hour 2
  0,                                      !- Minute 2
  0.1,                                    !- Value Until Time 2
  14,                                     !- Hour 3
  0,                                      !- Minute 3
  0.5,                                    !- Value Until Time 3
  17,                                     !- Hour 4
  0,                                      !- Minute 4
  0.1,                                    !- Value Until Time 4
  24,                                     !- Hour 5
  0,                                      !- Minute 5
  0;                                      !- Value Until Time 5

OS:ScheduleTypeLimits,
  {21b96265-f1f2-4ff2-b477-3f805ce6c76d}, !- Handle
  Fractional,                             !- Name
  0,                                      !- Lower Limit Value {BasedOnField A4}
  1,                                      !- Upper Limit Value {BasedOnField A4}
  Continuous;                             !- Numeric Type

OS:Schedule:Ruleset,
  {fb0e3ad7-2d79-4cfe-b5ce-198342d30e15}, !- Handle
  Medium Office People Activity Level Schedule, !- Name
  {f842971f-3519-4aa0-8bc4-124e3943ed4b}, !- Schedule Type Limits Name
  {26183a5e-a479-4dca-8205-b6186a229520}; !- Default Day Schedule Name

OS:Schedule:Day,
  {26183a5e-a479-4dca-8205-b6186a229520}, !- Handle
  Medium Office People Activity Level All Days Schedule, !- Name
  {f842971f-3519-4aa0-8bc4-124e3943ed4b}, !- Schedule Type Limits Name
  ,                                       !- Interpolate to Timestep
  24,                                     !- Hour 1
  0,                                      !- Minute 1
  120;                                    !- Value Until Time 1

OS:ScheduleTypeLimits,
  {f842971f-3519-4aa0-8bc4-124e3943ed4b}, !- Handle
  ActivityLevel,                          !- Name
  0,                                      !- Lower Limit Value {BasedOnField A4}
  ,                                       !- Upper Limit Value {BasedOnField A4}
  Continuous,                             !- Numeric Type
  ActivityLevel;                          !- Unit Type

OS:Schedule:Ruleset,
  {f00bdfb4-a8e1-4bf7-9ba8-ff4231683518}, !- Handle
  Medium Office Lighting Schedule,        !- Name
  {21b96265-f1f2-4ff2-b477-3f805ce6c76d}, !- Schedule Type Limits Name
  {d2b711b0-6940-4d4d-9d2e-1f7a29627179}, !- Default Day Schedule Name
  {d54af0ff-79e9-4dad-98af-bf6ead9d0028}, !- Summer Design Day Schedule Name
  {a85fd88d-48ac-4f9e-86bd-837e5795e2d9}; !- Winter Design Day Schedule Name

OS:Schedule:Day,
  {d2b711b0-6940-4d4d-9d2e-1f7a29627179}, !- Handle
  Medium Office Lighting All Other Days Schedule, !- Name
  {21b96265-f1f2-4ff2-b477-3f805ce6c76d}, !- Schedule Type Limits Name
  ,                                       !- Interpolate to Timestep
  24,                                     !- Hour 1
  0,                                      !- Minute 1
  0.05;                                   !- Value Until Time 1

OS:Schedule:Day,
  {bc99aa52-f8f8-4908-8684-ae3a05db0255}, !- Handle
  Medium Office Lighting Summer Design Day Schedule, !- Name
  ,                                       !- Schedule Type Limits Name
  ,                                       !- Interpolate to Timestep
  6,                                      !- Hour 1
  0,                                      !- Minute 1
  1,                                      !- Value Until Time 1
  24,                                     !- Hour 2
  0,                                      !- Minute 2
  0;                                      !- Value Until Time 2

OS:Schedule:Day,
  {d54af0ff-79e9-4dad-98af-bf6ead9d0028}, !- Handle
  Medium Office Lighting Summer Design Day Schedule 1, !- Name
  {21b96265-f1f2-4ff2-b477-3f805ce6c76d}, !- Schedule Type Limits Name
  ,                                       !- Interpolate to Timestep
  6,                                      !- Hour 1
  0,                                      !- Minute 1
  1,                                      !- Value Until Time 1
  24,                                     !- Hour 2
  0,                                      !- Minute 2
  0;                                      !- Value Until Time 2

OS:Schedule:Day,
  {8f964ecb-3658-43f4-aa5e-10da66b5fbc4}, !- Handle
  Medium Office Lighting Winter Design Day Schedule, !- Name
  ,                                       !- Schedule Type Limits Name
  ,                                       !- Interpolate to Timestep
  24,                                     !- Hour 1
  0,                                      !- Minute 1
  0;                                      !- Value Until Time 1

OS:Schedule:Day,
  {a85fd88d-48ac-4f9e-86bd-837e5795e2d9}, !- Handle
  Medium Office Lighting Winter Design Day Schedule 1, !- Name
  {21b96265-f1f2-4ff2-b477-3f805ce6c76d}, !- Schedule Type Limits Name
  ,                                       !- Interpolate to Timestep
  24,                                     !- Hour 1
  0,                                      !- Minute 1
  0;                                      !- Value Until Time 1

OS:Schedule:Rule,
  {1720d907-3b43-468d-b962-46ee8bb0d4f3}, !- Handle
  Medium Office Lighting Schedule Weekdays Rule, !- Name
  {f00bdfb4-a8e1-4bf7-9ba8-ff4231683518}, !- Schedule Ruleset Name
  1,                                      !- Rule Order
  {4f662cef-623a-4301-9fdc-635b88c59919}, !- Day Schedule Name
  ,                                       !- Apply Sunday
  Yes,                                    !- Apply Monday
  Yes,                                    !- Apply Tuesday
  Yes,                                    !- Apply Wednesday
  Yes,                                    !- Apply Thursday
  Yes;                                    !- Apply Friday

OS:Schedule:Day,
  {4f662cef-623a-4301-9fdc-635b88c59919}, !- Handle
  Medium Office Lighting Weekdays Schedule, !- Name
  {21b96265-f1f2-4ff2-b477-3f805ce6c76d}, !- Schedule Type Limits Name
  ,                                       !- Interpolate to Timestep
  5,                                      !- Hour 1
  0,                                      !- Minute 1
  0.05,                                   !- Value Until Time 1
  7,                                      !- Hour 2
  0,                                      !- Minute 2
  0.1,                                    !- Value Until Time 2
  8,                                      !- Hour 3
  0,                                      !- Minute 3
  0.3,                                    !- Value Until Time 3
  17,                                     !- Hour 4
  0,                                      !- Minute 4
  0.9,                                    !- Value Until Time 4
  18,                                     !- Hour 5
  0,                                      !- Minute 5
  0.7,                                    !- Value Until Time 5
  20,                                     !- Hour 6
  0,                                      !- Minute 6
  0.5,                                    !- Value Until Time 6
  22,                                     !- Hour 7
  0,                                      !- Minute 7
  0.3,                                    !- Value Until Time 7
  23,                                     !- Hour 8
  0,                                      !- Minute 8
  0.1,                                    !- Value Until Time 8
  24,                                     !- Hour 9
  0,                                      !- Minute 9
  0.05;                                   !- Value Until Time 9

OS:Schedule:Rule,
  {6f9e4eec-4941-4bad-b446-b8322c302906}, !- Handle
  Medium Office Lighting Schedule Saturday Rule, !- Name
  {f00bdfb4-a8e1-4bf7-9ba8-ff4231683518}, !- Schedule Ruleset Name
  0,                                      !- Rule Order
  {b0ae1387-87bb-459d-91b2-72f1d66c09f6}, !- Day Schedule Name
  ,                                       !- Apply Sunday
  ,                                       !- Apply Monday
  ,                                       !- Apply Tuesday
  ,                                       !- Apply Wednesday
  ,                                       !- Apply Thursday
  ,                                       !- Apply Friday
  Yes;                                    !- Apply Saturday

OS:Schedule:Day,
  {b0ae1387-87bb-459d-91b2-72f1d66c09f6}, !- Handle
  Medium Office Lighting Saturday Schedule, !- Name
  {21b96265-f1f2-4ff2-b477-3f805ce6c76d}, !- Schedule Type Limits Name
  ,                                       !- Interpolate to Timestep
  6,                                      !- Hour 1
  0,                                      !- Minute 1
  0.05,                                   !- Value Until Time 1
  8,                                      !- Hour 2
  0,                                      !- Minute 2
  0.1,                                    !- Value Until Time 2
  14,                                     !- Hour 3
  0,                                      !- Minute 3
  0.5,                                    !- Value Until Time 3
  17,                                     !- Hour 4
  0,                                      !- Minute 4
  0.15,                                   !- Value Until Time 4
  24,                                     !- Hour 5
  0,                                      !- Minute 5
  0.05;                                   !- Value Until Time 5

OS:Schedule:Ruleset,
  {c88a394c-7f6d-4c11-91a0-302e5b535aef}, !- Handle
  Medium Office Electric Equipment Schedule, !- Name
  {21b96265-f1f2-4ff2-b477-3f805ce6c76d}, !- Schedule Type Limits Name
  {5daa2b20-e673-4d6c-92b8-a783453911fa}, !- Default Day Schedule Name
  {8f56b6a7-265d-48ce-b6e0-fc3acf43d1db}, !- Summer Design Day Schedule Name
  {ca562aa6-a64b-4f7f-982b-6561b11b79cd}; !- Winter Design Day Schedule Name

OS:Schedule:Day,
  {5daa2b20-e673-4d6c-92b8-a783453911fa}, !- Handle
  Medium Office Electric Equipment All Other Days Schedule, !- Name
  {21b96265-f1f2-4ff2-b477-3f805ce6c76d}, !- Schedule Type Limits Name
  ,                                       !- Interpolate to Timestep
  24,                                     !- Hour 1
  0,                                      !- Minute 1
  0.3;                                    !- Value Until Time 1

OS:Schedule:Day,
  {b7c4604c-5dc7-419e-8ef4-e2876bf4be69}, !- Handle
  Medium Office Electric Equipment Summer Design Day Schedule, !- Name
  ,                                       !- Schedule Type Limits Name
  ,                                       !- Interpolate to Timestep
  6,                                      !- Hour 1
  0,                                      !- Minute 1
  1,                                      !- Value Until Time 1
  24,                                     !- Hour 2
  0,                                      !- Minute 2
  0;                                      !- Value Until Time 2

OS:Schedule:Day,
  {8f56b6a7-265d-48ce-b6e0-fc3acf43d1db}, !- Handle
  Medium Office Electric Equipment Summer Design Day Schedule 1, !- Name
  {21b96265-f1f2-4ff2-b477-3f805ce6c76d}, !- Schedule Type Limits Name
  ,                                       !- Interpolate to Timestep
  6,                                      !- Hour 1
  0,                                      !- Minute 1
  1,                                      !- Value Until Time 1
  24,                                     !- Hour 2
  0,                                      !- Minute 2
  0;                                      !- Value Until Time 2

OS:Schedule:Day,
  {c54a32ac-c906-4019-956c-0c64dac950de}, !- Handle
  Medium Office Electric Equipment Winter Design Day Schedule, !- Name
  ,                                       !- Schedule Type Limits Name
  ,                                       !- Interpolate to Timestep
  24,                                     !- Hour 1
  0,                                      !- Minute 1
  0;                                      !- Value Until Time 1

OS:Schedule:Day,
  {ca562aa6-a64b-4f7f-982b-6561b11b79cd}, !- Handle
  Medium Office Electric Equipment Winter Design Day Schedule 1, !- Name
  {21b96265-f1f2-4ff2-b477-3f805ce6c76d}, !- Schedule Type Limits Name
  ,                                       !- Interpolate to Timestep
  24,                                     !- Hour 1
  0,                                      !- Minute 1
  0;                                      !- Value Until Time 1

OS:Schedule:Rule,
  {0a9a9ddd-be54-41b7-b5c3-6ae32f3fd3e1}, !- Handle
  Medium Office Electric Equipment Schedule Weekdays Rule, !- Name
  {c88a394c-7f6d-4c11-91a0-302e5b535aef}, !- Schedule Ruleset Name
  1,                                      !- Rule Order
  {370d786e-ad42-47b8-af32-fca5b38dbdca}, !- Day Schedule Name
  ,                                       !- Apply Sunday
  Yes,                                    !- Apply Monday
  Yes,                                    !- Apply Tuesday
  Yes,                                    !- Apply Wednesday
  Yes,                                    !- Apply Thursday
  Yes;                                    !- Apply Friday

OS:Schedule:Day,
  {370d786e-ad42-47b8-af32-fca5b38dbdca}, !- Handle
  Medium Office Electric Equipment Weekdays Schedule, !- Name
  {21b96265-f1f2-4ff2-b477-3f805ce6c76d}, !- Schedule Type Limits Name
  ,                                       !- Interpolate to Timestep
  8,                                      !- Hour 1
  0,                                      !- Minute 1
  0.4,                                    !- Value Until Time 1
  12,                                     !- Hour 2
  0,                                      !- Minute 2
  0.9,                                    !- Value Until Time 2
  13,                                     !- Hour 3
  0,                                      !- Minute 3
  0.8,                                    !- Value Until Time 3
  17,                                     !- Hour 4
  0,                                      !- Minute 4
  0.9,                                    !- Value Until Time 4
  18,                                     !- Hour 5
  0,                                      !- Minute 5
  0.8,                                    !- Value Until Time 5
  20,                                     !- Hour 6
  0,                                      !- Minute 6
  0.6,                                    !- Value Until Time 6
  22,                                     !- Hour 7
  0,                                      !- Minute 7
  0.5,                                    !- Value Until Time 7
  24,                                     !- Hour 8
  0,                                      !- Minute 8
  0.4;                                    !- Value Until Time 8

OS:Schedule:Rule,
  {1b95aa20-57bf-4065-876b-28b39e09ad31}, !- Handle
  Medium Office Electric Equipment Schedule Saturday Rule, !- Name
  {c88a394c-7f6d-4c11-91a0-302e5b535aef}, !- Schedule Ruleset Name
  0,                                      !- Rule Order
  {9d872304-5eae-4146-b6cc-95bded27e755}, !- Day Schedule Name
  ,                                       !- Apply Sunday
  ,                                       !- Apply Monday
  ,                                       !- Apply Tuesday
  ,                                       !- Apply Wednesday