
OS:Version,
  {f01ce150-89be-4105-aacd-1bae259da0ac}, !- Handle
  1.6.3;                                  !- Version Identifier

OS:SimulationControl,
  {193354f6-fdeb-466c-ae84-aa7d827cffaa}, !- Handle
  Yes,                                    !- Do Zone Sizing Calculation
  Yes,                                    !- Do System Sizing Calculation
  ,                                       !- Do Plant Sizing Calculation
  No,                                     !- Run Simulation for Sizing Periods
  Yes;                                    !- Run Simulation for Weather File Run Periods

OS:Timestep,
  {331953bf-2509-483e-bca0-a6c13faf4d31}, !- Handle
  6;                                      !- Number of Timesteps per Hour

OS:RunPeriod,
  {c7292747-fd0e-4890-8e66-fad6814c56e0}, !- Handle
  Run Period 1,                           !- Name
  1,                                      !- Begin Month
  1,                                      !- Begin Day of Month
  12,                                     !- End Month
  31,                                     !- End Day of Month
  No,                                     !- Use Weather File Holidays and Special Days
  No,                                     !- Use Weather File Daylight Saving Period
  No,                                     !- Apply Weekend Holiday Rule
  Yes,                                    !- Use Weather File Rain Indicators
  Yes,                                    !- Use Weather File Snow Indicators
  1;                                      !- Number of Times Runperiod to be Repeated

OS:SurfaceConvectionAlgorithm:Inside,
  {b7b53b87-4565-43ae-85b1-828a172dc085}, !- Handle
  TARP;                                   !- Algorithm

OS:SurfaceConvectionAlgorithm:Outside,
  {222f2f5d-f2fb-4a82-9edc-b2360d9f56b1}, !- Handle
  DOE-2;                                  !- Algorithm

OS:HeatBalanceAlgorithm,
  {ba05f9a8-a43c-46d5-8fd5-4ad5c2b7379e}, !- Handle
  ConductionTransferFunction,             !- Algorithm
  200;                                    !- Surface Temperature Upper Limit {F}

OS:ZoneAirHeatBalanceAlgorithm,
  {c7e8fc22-7387-4aed-aa26-34dd9e33caa9}, !- Handle
  AnalyticalSolution;                     !- Algorithm

OS:ConvergenceLimits,
  {d45bb8ad-8bb5-410d-8360-b16bf5a2f0a6}; !- Handle

OS:ShadowCalculation,
  {b94d2199-6c79-4b78-aa52-4e29d6d92709}, !- Handle
  7,                                      !- Calculation Frequency
  15000;                                  !- Maximum Figures in Shadow Overlap Calculations

OS:Site,
  {c90d2e87-74c8-41ed-a366-9f70621d8fdb}, !- Handle
  Site 1,                                 !- Name
  41.77,                                  !- Latitude {deg}
  -87.75,                                 !- Longitude {deg}
  -6,                                     !- Time Zone {hr}
  190,                                    !- Elevation {m}
  ;                                       !- Terrain

OS:Site:GroundTemperature:BuildingSurface,
  {fea3522e-c17f-418e-9a36-81f022c42ff7}, !- Handle
  19.527,                                 !- January Ground Temperature {C}
  19.502,                                 !- February Ground Temperature {C}
  19.536,                                 !- March Ground Temperature {C}
  19.598,                                 !- April Ground Temperature {C}
  20.002,                                 !- May Ground Temperature {C}
  21.64,                                  !- June Ground Temperature {C}
  22.225,                                 !- July Ground Temperature {C}
  22.375,                                 !- August Ground Temperature {C}
  21.449,                                 !- September Ground Temperature {C}
  20.121,                                 !- October Ground Temperature {C}
  19.802,                                 !- November Ground Temperature {C}
  19.633;                                 !- December Ground Temperature {C}

OS:Site:WaterMainsTemperature,
  {5076f4da-b8b0-4ccd-a9b2-ac0977cb5ad8}, !- Handle
  Correlation,                            !- Calculation Method
  ,                                       !- Temperature Schedule Name
  9.69,                                   !- Annual Average Outdoor Air Temperature {C}
  28.1;                                   !- Maximum Difference In Monthly Average Outdoor Air Temperatures {deltaC}

OS:SizingPeriod:DesignDay,
  {969a888a-5c47-41a3-8c95-8511063d43ed}, !- Handle
  Sizing Period Design Day 1,             !- Name
  -20.6,                                  !- Maximum Dry-Bulb Temperature {C}
  0,                                      !- Daily Dry-Bulb Temperature Range {deltaC}
  -20.6,                                  !- Humidity Indicating Conditions at Maximum Dry-Bulb {BasedOnField A3}
  99063,                                  !- Barometric Pressure {Pa}
  4.9,                                    !- Wind Speed {m/s}
  270,                                    !- Wind Direction {deg}
  0,                                      !- Sky Clearness
  0,                                      !- Rain Indicator
  0,                                      !- Snow Indicator
  21,                                     !- Day of Month
  1,                                      !- Month
  WinterDesignDay,                        !- Day Type
  0,                                      !- Daylight Saving Time Indicator
  WetBulb,                                !- Humidity Indicating Type
  ,                                       !- Humidity Indicating Day Schedule Name
  DefaultMultipliers,                     !- Dry-Bulb Temperature Range Modifier Type
  ,                                       !- Dry-Bulb Temperature Range Modifier Schedule Name
  AshraeClearSky;                         !- Solar Model Indicator

OS:SizingPeriod:DesignDay,
  {4ff88fb0-9403-46c6-a350-be2c1cacd2c5}, !- Handle
  Sizing Period Design Day 2,             !- Name
  33.2,                                   !- Maximum Dry-Bulb Temperature {C}
  10.7,                                   !- Daily Dry-Bulb Temperature Range {deltaC}
  23.8,                                   !- Humidity Indicating Conditions at Maximum Dry-Bulb {BasedOnField A3}
  99063,                                  !- Barometric Pressure {Pa}
  5.3,                                    !- Wind Speed {m/s}
  230,                                    !- Wind Direction {deg}
  1,                                      !- Sky Clearness
  0,                                      !- Rain Indicator
  0,                                      !- Snow Indicator
  21,                                     !- Day of Month
  7,                                      !- Month
  SummerDesignDay,                        !- Day Type
  0,                                      !- Daylight Saving Time Indicator
  WetBulb,                                !- Humidity Indicating Type
  ,                                       !- Humidity Indicating Day Schedule Name
  DefaultMultipliers,                     !- Dry-Bulb Temperature Range Modifier Type
  ,                                       !- Dry-Bulb Temperature Range Modifier Schedule Name
  AshraeClearSky;                         !- Solar Model Indicator

OS:ScheduleTypeLimits,
  {90ddb480-769c-46f0-b9ff-b8cc0d5fe7bf}, !- Handle
  Temperature,                            !- Name
  -60,                                    !- Lower Limit Value {BasedOnField A4}
  200,                                    !- Upper Limit Value {BasedOnField A4}
  CONTINUOUS,                             !- Numeric Type
  Temperature;                            !- Unit Type

OS:DefaultScheduleSet,
  {66270e32-d01b-4238-9c7e-beadd33b8a43}, !- Handle
  Default Schedules,                      !- Name
  ,                                       !- Hours of Operation Schedule Name
  {2ce480bd-0b03-4a3a-8325-9185699cee3b}, !- Number of People Schedule Name
  {f4d455fd-75bf-400c-ac79-b438c69e7305}, !- People Activity Level Schedule Name
  {194a9818-a1ef-44a9-9f09-59c31734ac6f}, !- Lighting Schedule Name
  {a4ccc71d-6af9-4a04-ba1f-abd09a8a8436}, !- Electric Equipment Schedule Name
  {261f510f-ec30-4c08-95bb-75a95407d1cc}, !- Gas Equipment Schedule Name
  {14ee2a36-0646-4ca5-9748-7a7f5e04972b}, !- Hot Water Equipment Schedule Name
  {944b7a99-42f9-45cc-9f07-fa178f0d93d2}, !- Infiltration Schedule Name
  ,                                       !- Steam Equipment Schedule Name
  ;                                       !- Other Equipment Schedule Name

OS:Schedule:Ruleset,
  {2ce480bd-0b03-4a3a-8325-9185699cee3b}, !- Handle
  Medium Office Number of People Schedule, !- Name
  {26c6b3ad-9aef-497f-9740-25e587f22237}, !- Schedule Type Limits Name
  {210d1288-1a31-4c4b-b9fc-60b20dad305b}, !- Default Day Schedule Name
  {32aabff0-952b-4331-8f0f-5d39c93ef4f0}; !- Summer Design Day Schedule Name

OS:Schedule:Day,
  {210d1288-1a31-4c4b-b9fc-60b20dad305b}, !- Handle
  Medium Office Number of People All Other Days Schedule, !- Name
  {26c6b3ad-9aef-497f-9740-25e587f22237}, !- Schedule Type Limits Name
  ,                                       !- Interpolate to Timestep
  24,                                     !- Hour 1
  0,                                      !- Minute 1
  0;                                      !- Value Until Time 1

OS:Schedule:Day,
  {03e31e3e-38c2-498d-be34-01ed8a8dc9cf}, !- Handle
  Medium Office Number of People Summer Design Day Schedule, !- Name
  ,                                       !- Schedule Type Limits Name
  ,                                       !- Interpolate to Timestep
  6,                                      !- Hour 1
  0,                                      !- Minute 1
  0,                                      !- Value Until Time 1
  22,                                     !- Hour 2
  0,                                      !- Minute 2
  1,                                      !- Value Until Time 2
  24,                                     !- Hour 3
  0,                                      !- Minute 3
  0.05;                                   !- Value Until Time 3

OS:Schedule:Day,
  {32aabff0-952b-4331-8f0f-5d39c93ef4f0}, !- Handle
  Medium Office Number of People Summer Design Day Schedule 1, !- Name
  {26c6b3ad-9aef-497f-9740-25e587f22237}, !- Schedule Type Limits Name
  ,                                       !- Interpolate to Timestep
  6,                                      !- Hour 1
  0,                                      !- Minute 1
  0,                                      !- Value Until Time 1
  22,                                     !- Hour 2
  0,                                      !- Minute 2
  1,                                      !- Value Until Time 2
  24,                                     !- Hour 3
  0,                                      !- Minute 3
  0.05;                                   !- Value Until Time 3

OS:Schedule:Rule,
  {b2647813-a6a2-4e6e-99c3-e0237eab2287}, !- Handle
  Medium Office Number of People Schedule Weekdays Rule, !- Name
  {2ce480bd-0b03-4a3a-8325-9185699cee3b}, !- Schedule Ruleset Name
  1,                                      !- Rule Order
  {2af6bef8-7d23-4d96-ac65-8c7553003fe3}, !- Day Schedule Name
  ,                                       !- Apply Sunday
  Yes,                                    !- Apply Monday
  Yes,                                    !- Apply Tuesday
  Yes,                                    !- Apply Wednesday
  Yes,                                    !- Apply Thursday
  Yes;                                    !- Apply Friday

OS:Schedule:Day,
  {2af6bef8-7d23-4d96-ac65-8c7553003fe3}, !- Handle
  Medium Office Number of People Weekdays Schedule, !- Name
  {26c6b3ad-9aef-497f-9740-25e587f22237}, !- Schedule Type Limits Name
  ,                                       !- Interpolate to Timestep
  6,                                      !- Hour 1
  0,                                      !- Minute 1
  0,                                      !- Value Until Time 1
  7,                                      !- Hour 2
  0,                                      !- Minute 2
  0.1,                                    !- Value Until Time 2
  8,                                      !- Hour 3
  0,                                      !- Minute 3
  0.2,                                    !- Value Until Time 3
  12,                                     !- Hour 4
  0,                                      !- Minute 4
  0.95,                                   !- Value Until Time 4
  13,                                     !- Hour 5
  0,                                      !- Minute 5
  0.5,                                    !- Value Until Time 5
  17,                                     !- Hour 6
  0,                                      !- Minute 6
  0.95,                                   !- Value Until Time 6
  18,                                     !- Hour 7
  0,                                      !- Minute 7
  0.7,                                    !- Value Until Time 7
  20,                                     !- Hour 8
  0,                                      !- Minute 8
  0.4,                                    !- Value Until Time 8
  22,                                     !- Hour 9
  0,                                      !- Minute 9
  0.1,                                    !- Value Until Time 9
  24,                                     !- Hour 10
  0,                                      !- Minute 10
  0.05;                                   !- Value Until Time 10

OS:Schedule:Rule,
  {23396ee5-fba6-4c93-9b31-8dbdc2826759}, !- Handle
  Medium Office Number of People Schedule Saturday Rule, !- Name
  {2ce480bd-0b03-4a3a-8325-9185699cee3b}, !- Schedule Ruleset Name
  0,                                      !- Rule Order
  {38a50e7f-2fdf-4d76-b2ec-f8d5294ac687}, !- Day Schedule Name
  ,                                       !- Apply Sunday
  ,                                       !- Apply Monday
  ,                                       !- Apply Tuesday
  ,                                       !- Apply Wednesday
  ,                                       !- Apply Thursday
  ,                                       !- Apply Friday
  Yes;                                    !- Apply Saturday

OS:Schedule:Day,
  {38a50e7f-2fdf-4d76-b2ec-f8d5294ac687}, !- Handle
  Medium Office Number of People Saturday Schedule, !- Name
  {26c6b3ad-9aef-497f-9740-25e587f22237}, !- Schedule Type Limits Name
  ,                                       !- Interpolate to Timestep
  6,                                      !- Hour 1
  0,                                      !- Minute 1
  0,                                      !- Value Until Time 1
  8,                                      !- Hour 2
  0,                                      !- Minute 2
  0.1,                                    !- Value Until Time 2
  14,                                     !- Hour 3
  0,                                      !- Minute 3
  0.5,                                    !- Value Until Time 3
  17,                                     !- Hour 4
  0,                                      !- Minute 4
  0.1,                                    !- Value Until Time 4
  24,                                     !- Hour 5
  0,                                      !- Minute 5
  0;                                      !- Value Until Time 5

OS:ScheduleTypeLimits,
  {26c6b3ad-9aef-497f-9740-25e587f22237}, !- Handle
  Fractional,                             !- Name
  0,                                      !- Lower Limit Value {BasedOnField A4}
  1,                                      !- Upper Limit Value {BasedOnField A4}
  Continuous;                             !- Numeric Type

OS:Schedule:Ruleset,
  {f4d455fd-75bf-400c-ac79-b438c69e7305}, !- Handle
  Medium Office People Activity Level Schedule, !- Name
  {245a5d13-9574-493b-814b-fb4a1b83d7a1}, !- Schedule Type Limits Name
  {e99f5c8e-8c00-460d-92be-ac40a9acea0e}; !- Default Day Schedule Name

OS:Schedule:Day,
  {e99f5c8e-8c00-460d-92be-ac40a9acea0e}, !- Handle
  Medium Office People Activity Level All Days Schedule, !- Name
  {245a5d13-9574-493b-814b-fb4a1b83d7a1}, !- Schedule Type Limits Name
  ,                                       !- Interpolate to Timestep
  24,                                     !- Hour 1
  0,                                      !- Minute 1
  120;                                    !- Value Until Time 1

OS:ScheduleTypeLimits,
  {245a5d13-9574-493b-814b-fb4a1b83d7a1}, !- Handle
  ActivityLevel,                          !- Name
  0,                                      !- Lower Limit Value {BasedOnField A4}
  ,                                       !- Upper Limit Value {BasedOnField A4}
  Continuous,                             !- Numeric Type
  ActivityLevel;                          !- Unit Type

OS:Schedule:Ruleset,
  {194a9818-a1ef-44a9-9f09-59c31734ac6f}, !- Handle
  Medium Office Lighting Schedule,        !- Name
  {26c6b3ad-9aef-497f-9740-25e587f22237}, !- Schedule Type Limits Name
  {7a9ec30f-884b-4b82-8679-60ccef3cd356}, !- Default Day Schedule Name
  {7e451ffa-ad18-43d0-ba1a-efd22da2fd32}, !- Summer Design Day Schedule Name
  {b5b105b0-3da4-4a1e-bc48-33a4ff83e97b}; !- Winter Design Day Schedule Name

OS:Schedule:Day,
  {7a9ec30f-884b-4b82-8679-60ccef3cd356}, !- Handle
  Medium Office Lighting All Other Days Schedule, !- Name
  {26c6b3ad-9aef-497f-9740-25e587f22237}, !- Schedule Type Limits Name
  ,                                       !- Interpolate to Timestep
  24,                                     !- Hour 1
  0,                                      !- Minute 1
  0.05;                                   !- Value Until Time 1

OS:Schedule:Day,
  {a5ca67a5-894c-4893-85c4-b4239c43fe88}, !- Handle
  Medium Office Lighting Summer Design Day Schedule, !- Name
  ,                                       !- Schedule Type Limits Name
  ,                                       !- Interpolate to Timestep
  6,                                      !- Hour 1
  0,                                      !- Minute 1
  1,                                      !- Value Until Time 1
  24,                                     !- Hour 2
  0,                                      !- Minute 2
  0;                                      !- Value Until Time 2

OS:Schedule:Day,
  {7e451ffa-ad18-43d0-ba1a-efd22da2fd32}, !- Handle
  Medium Office Lighting Summer Design Day Schedule 1, !- Name
  {26c6b3ad-9aef-497f-9740-25e587f22237}, !- Schedule Type Limits Name
  ,                                       !- Interpolate to Timestep
  6,                                      !- Hour 1
  0,                                      !- Minute 1
  1,                                      !- Value Until Time 1
  24,                                     !- Hour 2
  0,                                      !- Minute 2
  0;                                      !- Value Until Time 2

OS:Schedule:Day,
  {60e2ddb2-33b2-41a9-8f0d-43f4f8a093e9}, !- Handle
  Medium Office Lighting Winter Design Day Schedule, !- Name
  ,                                       !- Schedule Type Limits Name
  ,                                       !- Interpolate to Timestep
  24,                                     !- Hour 1
  0,                                      !- Minute 1
  0;                                      !- Value Until Time 1

OS:Schedule:Day,
  {b5b105b0-3da4-4a1e-bc48-33a4ff83e97b}, !- Handle
  Medium Office Lighting Winter Design Day Schedule 1, !- Name
  {26c6b3ad-9aef-497f-9740-25e587f22237}, !- Schedule Type Limits Name
  ,                                       !- Interpolate to Timestep
  24,                                     !- Hour 1
  0,                                      !- Minute 1
  0;                                      !- Value Until Time 1

OS:Schedule:Rule,
  {16a66a6f-ef12-4be6-9721-ffee2a39c7cf}, !- Handle
  Medium Office Lighting Schedule Weekdays Rule, !- Name
  {194a9818-a1ef-44a9-9f09-59c31734ac6f}, !- Schedule Ruleset Name
  1,                                      !- Rule Order
  {3df03db8-e18f-4a7d-984d-81724c7dc928}, !- Day Schedule Name
  ,                                       !- Apply Sunday
  Yes,                                    !- Apply Monday
  Yes,                                    !- Apply Tuesday
  Yes,                                    !- Apply Wednesday
  Yes,                                    !- Apply Thursday
  Yes;                                    !- Apply Friday

OS:Schedule:Day,
  {3df03db8-e18f-4a7d-984d-81724c7dc928}, !- Handle
  Medium Office Lighting Weekdays Schedule, !- Name
  {26c6b3ad-9aef-497f-9740-25e587f22237}, !- Schedule Type Limits Name
  ,                                       !- Interpolate to Timestep
  5,                                      !- Hour 1
  0,                                      !- Minute 1
  0.05,                                   !- Value Until Time 1
  7,                                      !- Hour 2
  0,                                      !- Minute 2
  0.1,                                    !- Value Until Time 2
  8,                                      !- Hour 3
  0,                                      !- Minute 3
  0.3,                                    !- Value Until Time 3
  17,                                     !- Hour 4
  0,                                      !- Minute 4
  0.9,                                    !- Value Until Time 4
  18,                                     !- Hour 5
  0,                                      !- Minute 5
  0.7,                                    !- Value Until Time 5
  20,                                     !- Hour 6
  0,                                      !- Minute 6
  0.5,                                    !- Value Until Time 6
  22,                                     !- Hour 7
  0,                                      !- Minute 7
  0.3,                                    !- Value Until Time 7
  23,                                     !- Hour 8
  0,                                      !- Minute 8
  0.1,                                    !- Value Until Time 8
  24,                                     !- Hour 9
  0,                                      !- Minute 9
  0.05;                                   !- Value Until Time 9

OS:Schedule:Rule,
  {89766c39-fe3e-432a-937c-9f6ce892262e}, !- Handle
  Medium Office Lighting Schedule Saturday Rule, !- Name
  {194a9818-a1ef-44a9-9f09-59c31734ac6f}, !- Schedule Ruleset Name
  0,                                      !- Rule Order
  {e72fa3a4-7e91-49e5-9c83-38d5075fd8cf}, !- Day Schedule Name
  ,                                       !- Apply Sunday
  ,                                       !- Apply Monday
  ,                                       !- Apply Tuesday
  ,                                       !- Apply Wednesday
  ,                                       !- Apply Thursday
  ,                                       !- Apply Friday
  Yes;                                    !- Apply Saturday

OS:Schedule:Day,
  {e72fa3a4-7e91-49e5-9c83-38d5075fd8cf}, !- Handle
  Medium Office Lighting Saturday Schedule, !- Name
  {26c6b3ad-9aef-497f-9740-25e587f22237}, !- Schedule Type Limits Name
  ,                                       !- Interpolate to Timestep
  6,                                      !- Hour 1
  0,                                      !- Minute 1
  0.05,                                   !- Value Until Time 1
  8,                                      !- Hour 2
  0,                                      !- Minute 2
  0.1,                                    !- Value Until Time 2
  14,                                     !- Hour 3
  0,                                      !- Minute 3
  0.5,                                    !- Value Until Time 3
  17,                                     !- Hour 4
  0,                                      !- Minute 4
  0.15,                                   !- Value Until Time 4
  24,                                     !- Hour 5
  0,                                      !- Minute 5
  0.05;                                   !- Value Until Time 5

OS:Schedule:Ruleset,
  {a4ccc71d-6af9-4a04-ba1f-abd09a8a8436}, !- Handle
  Medium Office Electric Equipment Schedule, !- Name
  {26c6b3ad-9aef-497f-9740-25e587f22237}, !- Schedule Type Limits Name
  {9de373f5-4909-4131-be01-b09b3dfd29f1}, !- Default Day Schedule Name
  {d06bc6f8-3e73-46b2-9ca8-4a162098ce0b}, !- Summer Design Day Schedule Name
  {7bf95d52-6bb6-4c89-b583-f51150a449ad}; !- Winter Design Day Schedule Name

OS:Schedule:Day,
  {9de373f5-4909-4131-be01-b09b3dfd29f1}, !- Handle
  Medium Office Electric Equipment All Other Days Schedule, !- Name
  {26c6b3ad-9aef-497f-9740-25e587f22237}, !- Schedule Type Limits Name
  ,                                       !- Interpolate to Timestep
  24,                                     !- Hour 1
  0,                                      !- Minute 1
  0.3;                                    !- Value Until Time 1

OS:Schedule:Day,
  {e5fff0e8-ab71-46d4-a1ab-aca63a72e274}, !- Handle
  Medium Office Electric Equipment Summer Design Day Schedule, !- Name
  ,                                       !- Schedule Type Limits Name
  ,                                       !- Interpolate to Timestep
  6,                                      !- Hour 1
  0,                                      !- Minute 1
  1,                                      !- Value Until Time 1
  24,                                     !- Hour 2
  0,                                      !- Minute 2
  0;                                      !- Value Until Time 2

OS:Schedule:Day,
  {d06bc6f8-3e73-46b2-9ca8-4a162098ce0b}, !- Handle
  Medium Office Electric Equipment Summer Design Day Schedule 1, !- Name
  {26c6b3ad-9aef-497f-9740-25e587f22237}, !- Schedule Type Limits Name
  ,                                       !- Interpolate to Timestep
  6,                                      !- Hour 1
  0,                                      !- Minute 1
  1,                                      !- Value Until Time 1
  24,                                     !- Hour 2
  0,                                      !- Minute 2
  0;                                      !- Value Until Time 2

OS:Schedule:Day,
  {e2330863-618b-476b-b853-5e87523fae03}, !- Handle
  Medium Office Electric Equipment Winter Design Day Schedule, !- Name
  ,                                       !- Schedule Type Limits Name
  ,                                       !- Interpolate to Timestep
  24,                                     !- Hour 1
  0,                                      !- Minute 1
  0;                                      !- Value Until Time 1

OS:Schedule:Day,
  {7bf95d52-6bb6-4c89-b583-f51150a449ad}, !- Handle
  Medium Office Electric Equipment Winter Design Day Schedule 1, !- Name
  {26c6b3ad-9aef-497f-9740-25e587f22237}, !- Schedule Type Limits Name
  ,                                       !- Interpolate to Timestep
  24,                                     !- Hour 1
  0,                                      !- Minute 1
  0;                                      !- Value Until Time 1

OS:Schedule:Rule,
  {6306000d-2137-40bc-afb8-eae212fbc7d3}, !- Handle
  Medium Office Electric Equipment Schedule Weekdays Rule, !- Name
  {a4ccc71d-6af9-4a04-ba1f-abd09a8a8436}, !- Schedule Ruleset Name
  1,                                      !- Rule Order
  {1744c478-bea7-4979-a700-6cb9caa51f01}, !- Day Schedule Name
  ,                                       !- Apply Sunday
  Yes,                                    !- Apply Monday
  Yes,                                    !- Apply Tuesday
  Yes,                                    !- Apply Wednesday
  Yes,                                    !- Apply Thursday
  Yes;                                    !- Apply Friday

OS:Schedule:Day,
  {1744c478-bea7-4979-a700-6cb9caa51f01}, !- Handle
  Medium Office Electric Equipment Weekdays Schedule, !- Name
  {26c6b3ad-9aef-497f-9740-25e587f22237}, !- Schedule Type Limits Name
  ,                                       !- Interpolate to Timestep
  8,                                      !- Hour 1
  0,                                      !- Minute 1
  0.4,                                    !- Value Until Time 1
  12,                                     !- Hour 2
  0,                                      !- Minute 2
  0.9,                                    !- Value Until Time 2
  13,                                     !- Hour 3
  0,                                      !- Minute 3
  0.8,                                    !- Value Until Time 3
  17,                                     !- Hour 4
  0,                                      !- Minute 4
  0.9,                                    !- Value Until Time 4
  18,                                     !- Hour 5
  0,                                      !- Minute 5
  0.8,                                    !- Value Until Time 5
  20,                                     !- Hour 6
  0,                                      !- Minute 6
  0.6,                                    !- Value Until Time 6
  22,                                     !- Hour 7
  0,                                      !- Minute 7
  0.5,                                    !- Value Until Time 7
  24,                                     !- Hour 8
  0,                                      !- Minute 8
  0.4;                                    !- Value Until Time 8

OS:Schedule:Rule,
  {f788b458-7079-496e-99f1-6241c98be1cf}, !- Handle
  Medium Office Electric Equipment Schedule Saturday Rule, !- Name
  {a4ccc71d-6af9-4a04-ba1f-abd09a8a8436}, !- Schedule Ruleset Name
  0,                                      !- Rule Order
  {f7373c64-cfbe-47fb-b194-d649dcab56aa}, !- Day Schedule Name
  ,                                       !- Apply Sunday
  ,                                       !- Apply Monday
  ,                                       !- Apply Tuesday
  ,                                       !- Apply Wednesday