  Version,8.1;

  Timestep,4;

  Building,
    Sleeping Rainbow Ranch,  !- Name
    330.0,                   !- North Axis {deg}
    Suburbs,                 !- Terrain
    0.04,                    !- Loads Convergence Tolerance Value
    0.4,                     !- Temperature Convergence Tolerance Value {deltaC}
    FullInteriorAndExterior, !- Solar Distribution
    25,                      !- Maximum Number of Warmup Days
    6;                       !- Minimum Number of Warmup Days

  SimulationControl,
    NO,                      !- Do Zone Sizing Calculation
    NO,                      !- Do System Sizing Calculation
    NO,                      !- Do Plant Sizing Calculation
    Yes,                     !- Run Simulation for Sizing Periods
    Yes;                     !- Run Simulation for Weather File Run Periods

  RunPeriod,
    ,                        !- Name
    1,                       !- Begin Month
    1,                       !- Begin Day of Month
    12,                      !- End Month
    31,                      !- End Day of Month
    USEWEATHERFILE,          !- Day of Week for Start Day
    YES,                     !- Use Weather File Holidays and Special Days
    YES,                     !- Use Weather File Daylight Saving Period
    NO,                      !- Apply Weekend Holiday Rule
    YES,                     !- Use Weather File Rain Indicators
    YES;                     !- Use Weather File Snow Indicators

! NOTE:  Values overridden by weather file, if used

  Site:Location,
    Capitol Reef Natl Park UT,  !- Name
    38.185,                  !- Latitude {deg}
    -111.179,                !- Longitude {deg}
    -7.0,                    !- Time Zone {hr}
    1831.848;                !- Elevation {m}

  SizingPeriod:DesignDay,
    Capitol Reef Natl Park UT Heating 99% Conditions,  !- Name
    1,                       !- Month
    21,                      !- Day of Month
    WinterDesignDay,         !- Day Type
    -15,                     !- Maximum Dry-Bulb Temperature {C}
    0,                       !- Daily Dry-Bulb Temperature Range {deltaC}
    ,                        !- Dry-Bulb Temperature Range Modifier Type
    ,                        !- Dry-Bulb Temperature Range Modifier Day Schedule Name
    Wetbulb,                 !- Humidity Condition Type
    -15,                     !- Wetbulb or DewPoint at Maximum Dry-Bulb {C}
    ,                        !- Humidity Condition Day Schedule Name
    ,                        !- Humidity Ratio at Maximum Dry-Bulb {kgWater/kgDryAir}
    ,                        !- Enthalpy at Maximum Dry-Bulb {J/kg}
    ,                        !- Daily Wet-Bulb Temperature Range {deltaC}
    81169,                   !- Barometric Pressure {Pa}
    4.9,                     !- Wind Speed {m/s}
    290,                     !- Wind Direction {deg}
    No,                      !- Rain Indicator
    No,                      !- Snow Indicator
    No,                      !- Daylight Saving Time Indicator
    ASHRAEClearSky,          !- Solar Model Indicator
    ,                        !- Beam Solar Day Schedule Name
    ,                        !- Diffuse Solar Day Schedule Name
    ,                        !- ASHRAE Clear Sky Optical Depth for Beam Irradiance (taub) {dimensionless}
    ,                        !- ASHRAE Clear Sky Optical Depth for Diffuse Irradiance (taud) {dimensionless}
    0;                       !- Sky Clearness

  SizingPeriod:DesignDay,
    Capitol Reef Natl Park UT Cooling 1% Conditions DB=>MWB,  !- Name
    7,                       !- Month
    21,                      !- Day of Month
    SummerDesignDay,         !- Day Type
    35.8,                    !- Maximum Dry-Bulb Temperature {C}
    14.8,                    !- Daily Dry-Bulb Temperature Range {deltaC}
    ,                        !- Dry-Bulb Temperature Range Modifier Type
    ,                        !- Dry-Bulb Temperature Range Modifier Day Schedule Name
    Wetbulb,                 !- Humidity Condition Type
    15.7,                    !- Wetbulb or DewPoint at Maximum Dry-Bulb {C}
    ,                        !- Humidity Condition Day Schedule Name
    ,                        !- Humidity Ratio at Maximum Dry-Bulb {kgWater/kgDryAir}
    ,                        !- Enthalpy at Maximum Dry-Bulb {J/kg}
    ,                        !- Daily Wet-Bulb Temperature Range {deltaC}
    81169,                   !- Barometric Pressure {Pa}
    0,                       !- Wind Speed {m/s}
    0,                       !- Wind Direction {deg}
    No,                      !- Rain Indicator
    No,                      !- Snow Indicator
    No,                      !- Daylight Saving Time Indicator
    ASHRAEClearSky,          !- Solar Model Indicator
    ,                        !- Beam Solar Day Schedule Name
    ,                        !- Diffuse Solar Day Schedule Name
    ,                        !- ASHRAE Clear Sky Optical Depth for Beam Irradiance (taub) {dimensionless}
    ,                        !- ASHRAE Clear Sky Optical Depth for Diffuse Irradiance (taud) {dimensionless}
    1;                       !- Sky Clearness

  SurfaceConvectionAlgorithm:Inside,TARP;

  SurfaceConvectionAlgorithm:Outside,TARP;

  HeatBalanceAlgorithm,ConductionTransferFunction;

  ShadowCalculation,
    AverageOverDaysInFrequency,  !- Calculation Method
    31;                      !- Calculation Frequency

  ScheduleTypeLimits,
    Any Number;              !- Name

  Site:GroundReflectance,0.2,0.2,0.2,0.2,0.2,0.2,0.2,0.2,0.2,0.2,0.2,0.2;

! Deep ground temperatures for core, calibrated from slab.exe ground heat transfer program

  Site:GroundTemperature:BuildingSurface,2.31,2.61,3.20,3.89,3.17,2.88,1.69,1.25,1.53,2.43,3.59,2.45;

! Deep ground temperatures for perimeter, calibrated with slab.exe ground heat transfer program

  SurfaceProperty:OtherSideCoefficients,
    Perimeter Ground Environment,  !- Name
    -1,                      !- Combined Convective/Radiative Film Coefficient {W/m2-K}
    0,                       !- Constant Temperature {C}
    1,                       !- Constant Temperature Coefficient
    0,                       !- External Dry-Bulb Temperature Coefficient
    0,                       !- Ground Temperature Coefficient
    0,                       !- Wind Speed Coefficient
    0,                       !- Zone Air Temperature Coefficient
    Deep Ground Temp Schedule;  !- Constant Temperature Schedule Name

  Schedule:Compact,
    Deep Ground Temp Schedule,  !- Name
    Any Number,              !- Schedule Type Limits Name
    THROUGH: 1/31,           !- Field 1
    FOR: AllDays,            !- Field 2
    UNTIL: 24:00,-15.61,     !- Field 3
    THROUGH: 2/27,           !- Field 5
    FOR: AllDays,            !- Field 6
    UNTIL: 24:00,-10.26,     !- Field 7
    THROUGH: 3/31,           !- Field 9
    FOR: AllDays,            !- Field 10
    UNTIL: 24:00,-11.10,     !- Field 11
    THROUGH: 4/30,           !- Field 13
    FOR: AllDays,            !- Field 14
    UNTIL: 24:00,-7.95,      !- Field 15
    THROUGH: 5/31,           !- Field 17
    FOR: AllDays,            !- Field 18
    UNTIL: 24:00,-15.68,     !- Field 19
    THROUGH: 6/30,           !- Field 21
    FOR: AllDays,            !- Field 22
    UNTIL: 24:00,-15.04,     !- Field 23
    THROUGH: 7/31,           !- Field 25
    FOR: AllDays,            !- Field 26
    UNTIL: 24:00,-19.67,     !- Field 27
    THROUGH: 8/31,           !- Field 29
    FOR: AllDays,            !- Field 30
    UNTIL: 24:00,-18.64,     !- Field 31
    THROUGH: 9/30,           !- Field 33
    FOR: AllDays,            !- Field 34
    UNTIL: 24:00,-13.32,     !- Field 35
    THROUGH: 10/31,          !- Field 37
    FOR: AllDays,            !- Field 38
    UNTIL: 24:00,-11.34,     !- Field 39
    THROUGH: 11/30,          !- Field 41
    FOR: AllDays,            !- Field 42
    UNTIL: 24:00,-9.58,      !- Field 43
    THROUGH: 12/31,          !- Field 45
    FOR: AllDays,            !- Field 46
    UNTIL: 24:00,-17.11;     !- Field 47

!*** Wall Materials ***
! for interior of North walls:  4" recycled CMU

  Material,
    4 in Brick,              !- Name
    Rough,                   !- Roughness
    0.1016,                  !- Thickness {m}
    1.333,                   !- Conductivity {W/m-K}
    2002,                    !- Density {kg/m3}
    920,                     !- Specific Heat {J/kg-K}
    0.9,                     !- Thermal Absorptance
    0.7,                     !- Solar Absorptance
    0.7;                     !- Visible Absorptance

  Material,
    1/2 in Gypsum Board,     !- Name
    Rough,                   !- Roughness
    0.0127,                  !- Thickness {m}
    0.727,                   !- Conductivity {W/m-K}
    1602,                    !- Density {kg/m3}
    840,                     !- Specific Heat {J/kg-K}
    0.9,                     !- Thermal Absorptance
    0.3,                     !- Solar Absorptance
    0.3;                     !- Visible Absorptance

! R-19 Wall Insulation, 6" blown rigid cellulose
! Based on spec for ApplegateInsulation:  R-3.8/inch and 1.6 lb/ft3
! Specific heat from "IN14", Cellulose Fill 3.5 in R-20 in DOE-2Materials.idf
! NOTE:  This results in a wall of > R-19, more like R-22.8
!        This value has been derated to account for framing, etc. according to the ORNL Whole Wall R-Value Calculator.
!        Since "rigid cellulose" was not in the library, similar values for 2x6, 16 o.c. framing with loose cellulose and polyurathane
!        were used to estimate.  Loose cellulose had a clear wall R-value of 18.12 with 23% reduction for the whole wall.
!        Polyurathane has a clear wall R-value of 25.34 with 32% reduction for the whole wall.
!        The assumption here is that rigid cellulose is better than loose cellulose, but not as good as polyurathane.
!        Interpolating between the two, the best estimate is to derate the rigid cellulose by 28%.
!        Putting in more data about the house suggests this value could be derated even more!

  Material,
    6 in Rigid Cellulose,    !- Name
    Rough,                   !- Roughness
    0.1524,                  !- Thickness {m}
    0.0526,                  !- Conductivity {W/m-K}
    25.62954,                !- Density {kg/m3}
    1381.000,                !- Specific Heat {J/kg-K}
    0.90,                    !- Thermal Absorptance
    0.75,                    !- Solar Absorptance
    0.75;                    !- Visible Absorptance

  Material,
    1/2 in Ext Sheathing,    !- Name
    MediumSmooth,            !- Roughness
    0.0127,                  !- Thickness {m}
    0.115,                   !- Conductivity {W/m-K}
    545,                     !- Density {kg/m3}
    1213,                    !- Specific Heat {J/kg-K}
    0.9,                     !- Thermal Absorptance
    0.78,                    !- Solar Absorptance
    0.78;                    !- Visible Absorptance

  Material,
    1/2 in Stucco,           !- Name
    Rough,                   !- Roughness
    0.0127,                  !- Thickness {m}
    0.692,                   !- Conductivity {W/m-K}
    1858,                    !- Density {kg/m3}
    840,                     !- Specific Heat {J/kg-K}
    0.9,                     !- Thermal Absorptance
    0.6,                     !- Solar Absorptance
    0.6;                     !- Visible Absorptance

  Material,
    10 in Hollow Concrete Block,  !- Name
    MediumRough,             !- Roughness
    0.254,                   !- Thickness {m}
    1.040000,                !- Conductivity {W/m-K}
    1105.270,                !- Density {kg/m3}
    830.0000,                !- Specific Heat {J/kg-K}
    0.9000000,               !- Thermal Absorptance
    0.2000000,               !- Solar Absorptance
    0.2000000;               !- Visible Absorptance

  Material,
    Selective Surface,       !- Name
    Smooth,                  !- Roughness
    1.6000000E-03,           !- Thickness {m}
    392.6100,                !- Conductivity {W/m-K}
    8906.260,                !- Density {kg/m3}
    370.0000,                !- Specific Heat {J/kg-K}
    0.1200000,               !- Thermal Absorptance
    0.9600000,               !- Solar Absorptance
    0.9600000;               !- Visible Absorptance

  Material,
    WOOD - SOFTWOOD 3 1 / 2 IN,  !- Name
    MediumSmooth,            !- Roughness
    7.9999998E-02,           !- Thickness {m}
    0.1100000,               !- Conductivity {W/m-K}
    512.5900,                !- Density {kg/m3}
    1380.000,                !- Specific Heat {J/kg-K}
    0.9000000,               !- Thermal Absorptance
    0.7800000,               !- Solar Absorptance
    0.7800000;               !- Visible Absorptance

!*** Trombe Wall Materials ***

  Material,
    10 in Filled Concrete Block,  !- Name
    MediumRough,             !- Roughness
    0.254,                   !- Thickness {m}
    1.310,                   !- Conductivity {W/m-K}
    2242.580,                !- Density {kg/m3}
    830,                     !- Specific Heat {J/kg-K}
    0.9,                     !- Thermal Absorptance
    0.2,                     !- Solar Absorptance
    0.2;                     !- Visible Absorptance

! Adobe MC
! MATERIAL:REGULAR,  ! from "Experimental Validation of the EnergyPlus Low-Temperature Radiant Simulation" by Chantrasrisalai et al.
! ! 10 in Adobe Block,  !- Material Name
!  10 in Filled Concrete Block,  !- Material Name
!  MediumRough,  !- Roughness
!  TrombeThickness[],  !- Thickness {m}
!  0.626,   !- Conductivity {w/m-K}
!  1600,   !- Density {kg/m3}
!  921.8,   !- Specific Heat {J/kg-K}
!  0.9,   !- Thermal Emittance
!  0.2,   !- Solar Absorptance
!  0.2;   !- Visible Absorptance
! Adobe DF
! MATERIAL:REGULAR,  ! from "Experimental Validation of the EnergyPlus Low-Temperature Radiant Simulation" by Chantrasrisalai et al.
! ! 10 in Adobe Block,  !- Material Name
!  10 in Filled Concrete Block,  !- Material Name
!  MediumRough,  !- Roughness
!  TrombeThickness[],  !- Thickness {m}
!  0.8648,   !- Conductivity {w/m-K}
!  1922,   !- Density {kg/m3}
!  836.8,   !- Specific Heat {J/kg-K}
!  0.9,   !- Thermal Emittance
!  0.2,   !- Solar Absorptance
!  0.2;   !- Visible Absorptance
!*** Roof Materials ***
! R-44 Roof Insulation, 12" blown rigid cellulose
! Based on spec for ApplegateInsulation:  R-3.8/inch and 1.6 lb/ft3
! Specific heat from "IN14", Cellulose Fill 3.5 in R-20 in DOE-2Materials.idf
! NOTE:  Like the wall insulation, the roof insulation is also derated due to framing, but since there are no windows/doors and the joists are at 24" o.c.,
!        then we'll only derate by 18%.

  Material,
    12 in Rigid Cellulose,   !- Name
    Rough,                   !- Roughness
    0.3048,                  !- Thickness {m}
    0.0462,                  !- Conductivity {W/m-K}
    25.62954,                !- Density {kg/m3}
    1381.000,                !- Specific Heat {J/kg-K}
    0.90,                    !- Thermal Absorptance
    0.75,                    !- Solar Absorptance
    0.75;                    !- Visible Absorptance

! According to FSEC report:
! for dark colored roof, e.g. asphalt shingle, absorptance should be ~0.80 (based on average reflectivity of 0.20)
! for light colored ("cool") roof, absorptance should be ~0.34 (based on average reflectivity of 0.66)

  Material,
    Metal Roofing,           !- Name
    Rough,                   !- Roughness
    0.002,                   !- Thickness {m}
    45,                      !- Conductivity {W/m-K}
    7689,                    !- Density {kg/m3}
    420,                     !- Specific Heat {J/kg-K}
    0.9,                     !- Thermal Absorptance
    0.3,                     !- Solar Absorptance
    0.3;                     !- Visible Absorptance

!*** Floor Materials ***

  Material,
    Hardwood Floor,          !- Name
    MediumSmooth,            !- Roughness
    0.003175,                !- Thickness {m}
    0.1500000,               !- Conductivity {W/m-K}
    720.8300,                !- Density {kg/m3}
    1250.000,                !- Specific Heat {J/kg-K}
    0.9000000,               !- Thermal Absorptance
    0.7800000,               !- Solar Absorptance
    0.7800000;               !- Visible Absorptance

! 4 inch heavyweight concrete for floor slab

  Material,
    4 in HW Concrete,        !- Name
    Rough,                   !- Roughness
    0.1016,                  !- Thickness {m}
    1.73,                    !- Conductivity {W/m-K}
    2243,                    !- Density {kg/m3}
    837,                     !- Specific Heat {J/kg-K}
    0.9,                     !- Thermal Absorptance
    0.3,                     !- Solar Absorptance
    0.3;                     !- Visible Absorptance

  Material,
    2 in HW Concrete,        !- Name
    Rough,                   !- Roughness
    0.0508,                  !- Thickness {m}
    1.73,                    !- Conductivity {W/m-K}
    2243,                    !- Density {kg/m3}
    837,                     !- Specific Heat {J/kg-K}
    0.9,                     !- Thermal Absorptance
    0.3,                     !- Solar Absorptance
    0.3;                     !- Visible Absorptance

  Material,
    4 in LW Concrete,        !- Name
    Rough,                   !- Roughness
    0.1016,                  !- Thickness {m}
    0.17,                    !- Conductivity {W/m-K}
    640.7,                   !- Density {kg/m3}
    830,                     !- Specific Heat {J/kg-K}
    0.9,                     !- Thermal Absorptance
    0.3,                     !- Solar Absorptance
    0.3;                     !- Visible Absorptance

! Set to match properties used in Slab.exe
! Mark has his own estimates of:  R-0.23/in? /ft? (=0.626 W/m K or 7.51 W/m K), Cp=0.22 IP =921.8 J/Kg K, density=120 lb/ft3=1920 kg/m3

  Material,
    Dirt,                    !- Name
    Rough,                   !- Roughness
    2.0,                     !- Thickness {m}
    2.5,                     !- Conductivity {W/m-K}
    2650,                    !- Density {kg/m3}
    870,                     !- Specific Heat {J/kg-K}
    0.9,                     !- Thermal Absorptance
    0.7,                     !- Solar Absorptance
    0.7;                     !- Visible Absorptance

! 2 in Styrofoam

  Material,
    Under Slab Insulation,   !- Name
    Rough,                   !- Roughness
    0.0508,                  !- Thickness {m}
    0.028,                   !- Conductivity {W/m-K}
    32,                      !- Density {kg/m3}
    1210,                    !- Specific Heat {J/kg-K}
    0.9,                     !- Thermal Absorptance
    0.5,                     !- Solar Absorptance
    0.5;                     !- Visible Absorptance

!*** Door Materials ***

  Material,
    1/8 in Wood Panel,       !- Name
    MEDIUMSMOOTH,            !- Roughness
    0.003175,                !- Thickness {m}
    0.11,                    !- Conductivity {W/m-K}
    512.59,                  !- Density {kg/m3}
    1380,                    !- Specific Heat {J/kg-K}
    0.9,                     !- Thermal Absorptance
    0.78,                    !- Solar Absorptance
    0.78;                    !- Visible Absorptance

  Material:AirGap,
    Airspace - Vertical,     !- Name
    0.17;                    !- Thermal Resistance {m2-K/W}

! Insulated Steel Door, R-7.14

  Material:NoMass,
    Insulated Steel Door,    !- Name
    SMOOTH,                  !- Roughness
    1.25664,                 !- Thermal Resistance {m2-K/W}
    0.9,                     !- Thermal Absorptance
    0.7,                     !- Solar Absorptance
    0.7;                     !- Visible Absorptance

!*** Glazing ***
!                    Name                                         Th   Ts   Rfs  Rbs  Tv   Rfv  Rbv Tir Ef  Eb Con

  WindowMaterial:Glazing,
    CLEAR 3MM,               !- Name
    SpectralAverage,         !- Optical Data Type
    ,                        !- Window Glass Spectral Data Set Name
    .003,                    !- Thickness {m}
    .837,                    !- Solar Transmittance at Normal Incidence
    .075,                    !- Front Side Solar Reflectance at Normal Incidence
    .075,                    !- Back Side Solar Reflectance at Normal Incidence
    .898,                    !- Visible Transmittance at Normal Incidence
    .081,                    !- Front Side Visible Reflectance at Normal Incidence
    .081,                    !- Back Side Visible Reflectance at Normal Incidence
    .0,                      !- Infrared Transmittance at Normal Incidence
    .84,                     !- Front Side Infrared Hemispherical Emissivity
    .84,                     !- Back Side Infrared Hemispherical Emissivity
    .9;                      !- Conductivity {W/m-K}

  WindowMaterial:Glazing,
    LoE CLEAR 3MM,           !- Name
    SpectralAverage,         !- Optical Data Type
    ,                        !- Window Glass Spectral Data Set Name
    .003,                    !- Thickness {m}
    .630,                    !- Solar Transmittance at Normal Incidence
    .190,                    !- Front Side Solar Reflectance at Normal Incidence
    .220,                    !- Back Side Solar Reflectance at Normal Incidence
    .850,                    !- Visible Transmittance at Normal Incidence
    .056,                    !- Front Side Visible Reflectance at Normal Incidence
    .079,                    !- Back Side Visible Reflectance at Normal Incidence
    .0,                      !- Infrared Transmittance at Normal Incidence
    .84,                     !- Front Side Infrared Hemispherical Emissivity
    .10,                     !- Back Side Infrared Hemispherical Emissivity
    .9;                      !- Conductivity {W/m-K}

  WindowMaterial:Glazing,
    Frosted CLEAR 3MM,       !- Name
    SpectralAverage,         !- Optical Data Type
    ,                        !- Window Glass Spectral Data Set Name
    .003,                    !- Thickness {m}
    .837,                    !- Solar Transmittance at Normal Incidence
    .075,                    !- Front Side Solar Reflectance at Normal Incidence
    .075,                    !- Back Side Solar Reflectance at Normal Incidence
    .898,                    !- Visible Transmittance at Normal Incidence
    .081,                    !- Front Side Visible Reflectance at Normal Incidence
    .081,                    !- Back Side Visible Reflectance at Normal Incidence
    .0,                      !- Infrared Transmittance at Normal Incidence
    .84,                     !- Front Side Infrared Hemispherical Emissivity
    .84,                     !- Back Side Infrared Hemispherical Emissivity
    .9,                      !- Conductivity {W/m-K}
    1.0,                     !- Dirt Correction Factor for Solar and Visible Transmittance
    YES;                     !- Solar Diffusing

! for Trombe glazing

  WindowMaterial:Glazing,
    LOW IRON 3MM,            !- Name
    SpectralAverage,         !- Optical Data Type
    ,                        !- Window Glass Spectral Data Set Name
    .003,                    !- Thickness {m}
    .899,                    !- Solar Transmittance at Normal Incidence
    .079,                    !- Front Side Solar Reflectance at Normal Incidence
    .079,                    !- Back Side Solar Reflectance at Normal Incidence
    .913,                    !- Visible Transmittance at Normal Incidence
    .082,                    !- Front Side Visible Reflectance at Normal Incidence
    .082,                    !- Back Side Visible Reflectance at Normal Incidence
    .0,                      !- Infrared Transmittance at Normal Incidence
    .84,                     !- Front Side Infrared Hemispherical Emissivity
    .84,                     !- Back Side Infrared Hemispherical Emissivity
    .9;                      !- Conductivity {W/m-K}

  WindowMaterial:Glazing,
    PYR B CLEAR 3MM,         !- Name
    SpectralAverage,         !- Optical Data Type
    ,                        !- Window Glass Spectral Data Set Name
    .003,                    !- Thickness {m}
    .740,                    !- Solar Transmittance at Normal Incidence
    .090,                    !- Front Side Solar Reflectance at Normal Incidence
    .100,                    !- Back Side Solar Reflectance at Normal Incidence
    .820,                    !- Visible Transmittance at Normal Incidence
    .110,                    !- Front Side Visible Reflectance at Normal Incidence
    .120,                    !- Back Side Visible Reflectance at Normal Incidence
    .0,                      !- Infrared Transmittance at Normal Incidence
    .84,                     !- Front Side Infrared Hemispherical Emissivity
    .20,                     !- Back Side Infrared Hemispherical Emissivity
    .9;                      !- Conductivity {W/m-K}

  WindowMaterial:Glazing,
    PYR B CLEAR 3MM Rev,     !- Name
    SpectralAverage,         !- Optical Data Type
    ,                        !- Window Glass Spectral Data Set Name
    .003,                    !- Thickness {m}
    .740,                    !- Solar Transmittance at Normal Incidence
    .100,                    !- Front Side Solar Reflectance at Normal Incidence
    .090,                    !- Back Side Solar Reflectance at Normal Incidence
    .820,                    !- Visible Transmittance at Normal Incidence
    .120,                    !- Front Side Visible Reflectance at Normal Incidence
    .110,                    !- Back Side Visible Reflectance at Normal Incidence
    .0,                      !- Infrared Transmittance at Normal Incidence
    .20,                     !- Front Side Infrared Hemispherical Emissivity
    .84,                     !- Back Side Infrared Hemispherical Emissivity
    .9;                      !- Conductivity {W/m-K}

  WindowMaterial:Glazing,
    LoE CLEAR 3MM Rev,       !- Name
    SpectralAverage,         !- Optical Data Type
    ,                        !- Window Glass Spectral Data Set Name
    .003,                    !- Thickness {m}
    .630,                    !- Solar Transmittance at Normal Incidence
    .220,                    !- Front Side Solar Reflectance at Normal Incidence
    .190,                    !- Back Side Solar Reflectance at Normal Incidence
    .850,                    !- Visible Transmittance at Normal Incidence
    .079,                    !- Front Side Visible Reflectance at Normal Incidence
    .056,                    !- Back Side Visible Reflectance at Normal Incidence
    .0,                      !- Infrared Transmittance at Normal Incidence
    .10,                     !- Front Side Infrared Hemispherical Emissivity
    .84,                     !- Back Side Infrared Hemispherical Emissivity
    .9;                      !- Conductivity {W/m-K}

  WindowMaterial:Glazing,
    LoE SPEC SEL CLEAR 3MM,  !- Name
    SpectralAverage,         !- Optical Data Type
    ,                        !- Window Glass Spectral Data Set Name
    .003,                    !- Thickness {m}
    .450,                    !- Solar Transmittance at Normal Incidence
    .340,                    !- Front Side Solar Reflectance at Normal Incidence
    .370,                    !- Back Side Solar Reflectance at Normal Incidence
    .780,                    !- Visible Transmittance at Normal Incidence
    .070,                    !- Front Side Visible Reflectance at Normal Incidence
    .060,                    !- Back Side Visible Reflectance at Normal Incidence
    .0,                      !- Infrared Transmittance at Normal Incidence
    .84,                     !- Front Side Infrared Hemispherical Emissivity
    .03,                     !- Back Side Infrared Hemispherical Emissivity
    .9;                      !- Conductivity {W/m-K}

  WindowMaterial:Glazing,
    LoE SPEC SEL CLEAR 3MM Rev,  !- Name
    SpectralAverage,         !- Optical Data Type
    ,                        !- Window Glass Spectral Data Set Name
    .003,                    !- Thickness {m}
    .450,                    !- Solar Transmittance at Normal Incidence
    .370,                    !- Front Side Solar Reflectance at Normal Incidence
    .340,                    !- Back Side Solar Reflectance at Normal Incidence
    .780,                    !- Visible Transmittance at Normal Incidence
    .060,                    !- Front Side Visible Reflectance at Normal Incidence
    .070,                    !- Back Side Visible Reflectance at Normal Incidence
    .0,                      !- Infrared Transmittance at Normal Incidence
    .03,                     !- Front Side Infrared Hemispherical Emissivity
    .84,                     !- Back Side Infrared Hemispherical Emissivity
    .9;                      !- Conductivity {W/m-K}

  WindowMaterial:Gas,
    AIR 13MM,                !- Name
    AIR,                     !- Gas Type
    0.0127;                  !- Thickness {m}

  WindowMaterial:Shade,
    Frosted Glass,           !- Name
    0.998,                   !- Solar Transmittance {dimensionless}
    0.001,                   !- Solar Reflectance {dimensionless}
    0.998,                   !- Visible Transmittance {dimensionless}
    0.001,                   !- Visible Reflectance {dimensionless}
    0.9,                     !- Infrared Hemispherical Emissivity {dimensionless}
    0.0,                     !- Infrared Transmittance {dimensionless}
    0.0001,                  !- Thickness {m}
    100,                     !- Conductivity {W/m-K}
    0.001,                   !- Shade to Glass Distance {m}
    0.0,                     !- Top Opening Multiplier
    0.0,                     !- Bottom Opening Multiplier
    0.0,                     !- Left-Side Opening Multiplier
    0.0,                     !- Right-Side Opening Multiplier
    0.0;                     !- Airflow Permeability {dimensionless}
