! ;-*-f90-*-
!-Generator IDFEditor 1.12
!-NOTE: All comments with '!-' are ignored by the IDFEditor and are generated automatically.
!-      Use '!' comments if they need to be retained when using the IDFEditor.
!-   ===========  ALL OBJECTS IN CLASS: VERSION ===========
! ;-*-f90-*-
! Chesapeake Bay Foundation's Environmental Center
!  As-built model
!
!History
! CBF_devel.idf    first file for developing building description
!
!

  VERSION,8.1;

!-   ===========  ALL OBJECTS IN CLASS: BUILDING ===========
!10,  ! estimated

  Building,
    Phillip Merrill Environmental Center,  !- Name
    0,                       !- North Axis {deg}
    Country,                 !- Terrain
    0.04,                    !- Loads Convergence Tolerance Value
    0.4,                     !- Temperature Convergence Tolerance Value {deltaC}
    FullExterior,            !- Solar Distribution
    25,                      !- Maximum Number of Warmup Days
    6;                       !- Minimum Number of Warmup Days

!-   ===========  ALL OBJECTS IN CLASS: TIMESTEP IN HOUR ===========

  Timestep,4;

!-   ===========  ALL OBJECTS IN CLASS: INSIDE CONVECTION ALGORITHM ===========

  SurfaceConvectionAlgorithm:Inside,TARP;

!-   ===========  ALL OBJECTS IN CLASS: OUTSIDE CONVECTION ALGORITHM ===========

  SurfaceConvectionAlgorithm:Outside,TARP;

!-   ===========  ALL OBJECTS IN CLASS: SOLUTION ALGORITHM ===========

  HeatBalanceAlgorithm,ConductionTransferFunction;

!-   ===========  ALL OBJECTS IN CLASS: SHADOWING CALCULATIONS ===========

  ShadowCalculation,
    AverageOverDaysInFrequency,  !- Calculation Method
    20;                      !- Calculation Frequency

!-   ===========  ALL OBJECTS IN CLASS: RUN CONTROL ===========

  SimulationControl,
    no,                      !- Do Zone Sizing Calculation
    no,                      !- Do System Sizing Calculation
    no,                      !- Do Plant Sizing Calculation
    yes,                     !- Run Simulation for Sizing Periods
    no;                      !- Run Simulation for Weather File Run Periods

!-   ===========  ALL OBJECTS IN CLASS: RUNPERIOD ===========

  RunPeriod,
    ,                        !- Name
    1,                       !- Begin Month
    1,                       !- Begin Day of Month
    12,                      !- End Month
    31,                      !- End Day of Month
    Monday,                  !- Day of Week for Start Day
    No,                      !- Use Weather File Holidays and Special Days
    No,                      !- Use Weather File Daylight Saving Period
    No,                      !- Apply Weekend Holiday Rule
    No,                      !- Use Weather File Rain Indicators
    No;                      !- Use Weather File Snow Indicators

!-   ===========  ALL OBJECTS IN CLASS: LOCATION ===========

  Site:Location,
    Baltimore Airport,       !- Name
    39.18,                   !- Latitude {deg}
    -76.67,                  !- Longitude {deg}
    -5,                      !- Time Zone {hr}
    2;                       !- Elevation {m}

!-   ===========  ALL OBJECTS IN CLASS: DESIGNDAY ===========
! 0.4% cooling ASHRAE 2001 fundementals

  SizingPeriod:DesignDay,
    SUMMER Baltimore,        !- Name
    7,                       !- Month
    21,                      !- Day of Month
    SummerDesignDay,         !- Day Type
    34,                      !- Maximum Dry-Bulb Temperature {C}
    10.4,                    !- Daily Dry-Bulb Temperature Range {deltaC}
    ,                        !- Dry-Bulb Temperature Range Modifier Type
    ,                        !- Dry-Bulb Temperature Range Modifier Day Schedule Name
    Wetbulb,                 !- Humidity Condition Type
    23.7,                    !- Wetbulb or DewPoint at Maximum Dry-Bulb {C}
    ,                        !- Humidity Condition Day Schedule Name
    ,                        !- Humidity Ratio at Maximum Dry-Bulb {kgWater/kgDryAir}
    ,                        !- Enthalpy at Maximum Dry-Bulb {J/kg}
    ,                        !- Daily Wet-Bulb Temperature Range {deltaC}
    100000,                  !- Barometric Pressure {Pa}
    4.9,                     !- Wind Speed {m/s}
    280,                     !- Wind Direction {deg}
    No,                      !- Rain Indicator
    No,                      !- Snow Indicator
    No,                      !- Daylight Saving Time Indicator
    ASHRAEClearSky,          !- Solar Model Indicator
    ,                        !- Beam Solar Day Schedule Name
    ,                        !- Diffuse Solar Day Schedule Name
    ,                        !- ASHRAE Clear Sky Optical Depth for Beam Irradiance (taub) {dimensionless}
    ,                        !- ASHRAE Clear Sky Optical Depth for Diffuse Irradiance (taud) {dimensionless}
    0.98;                    !- Sky Clearness

! 99.6% heating ASHRAE 2001 fundementals

  SizingPeriod:DesignDay,
    WINTER Baltimore,        !- Name
    1,                       !- Month
    21,                      !- Day of Month
    WinterDesignDay,         !- Day Type
    -11.6,                   !- Maximum Dry-Bulb Temperature {C}
    0,                       !- Daily Dry-Bulb Temperature Range {deltaC}
    ,                        !- Dry-Bulb Temperature Range Modifier Type
    ,                        !- Dry-Bulb Temperature Range Modifier Day Schedule Name
    Wetbulb,                 !- Humidity Condition Type
    -16,                     !- Wetbulb or DewPoint at Maximum Dry-Bulb {C}
    ,                        !- Humidity Condition Day Schedule Name
    ,                        !- Humidity Ratio at Maximum Dry-Bulb {kgWater/kgDryAir}
    ,                        !- Enthalpy at Maximum Dry-Bulb {J/kg}
    ,                        !- Daily Wet-Bulb Temperature Range {deltaC}
    100000,                  !- Barometric Pressure {Pa}
    4.5,                     !- Wind Speed {m/s}
    290,                     !- Wind Direction {deg}
    No,                      !- Rain Indicator
    No,                      !- Snow Indicator
    No,                      !- Daylight Saving Time Indicator
    ASHRAEClearSky,          !- Solar Model Indicator
    ,                        !- Beam Solar Day Schedule Name
    ,                        !- Diffuse Solar Day Schedule Name
    ,                        !- ASHRAE Clear Sky Optical Depth for Beam Irradiance (taub) {dimensionless}
    ,                        !- ASHRAE Clear Sky Optical Depth for Diffuse Irradiance (taud) {dimensionless}
    0.45;                    !- Sky Clearness

!-   ===========  ALL OBJECTS IN CLASS: GROUNDTEMPERATURES ===========

  Site:GroundTemperature:BuildingSurface,19.45,19.37,19.42,19.48,19.59,19.66,19.75,19.92,19.95,19.84,19.71,19.55;

!-   ===========  ALL OBJECTS IN CLASS: GROUNDREFLECTANCES ===========

  Site:GroundReflectance,0.2,0.2,0.2,0.2,0.2,0.2,0.2,0.2,0.2,0.2,0.2,0.2;

!-   ===========  ALL OBJECTS IN CLASS: MATERIAL:REGULAR ===========
! materials

  Material,
    SIP-Foam-7.5inch,        !- Name
    Smooth,                  !- Roughness
    0.1905,                  !- Thickness {m}
    0.030,                   !- Conductivity {W/m-K}
    50,                      !- Density {kg/m3}
    1210,                    !- Specific Heat {J/kg-K}
    0.9,                     !- Thermal Absorptance
    0.7,                     !- Solar Absorptance
    0.7;                     !- Visible Absorptance

  Material,
    SIP-Foam-5.5inch,        !- Name
    Smooth,                  !- Roughness
    0.1397,                  !- Thickness {m}
    0.030,                   !- Conductivity {W/m-K}
    50,                      !- Density {kg/m3}
    1210,                    !- Specific Heat {J/kg-K}
    0.9,                     !- Thermal Absorptance
    0.7,                     !- Solar Absorptance
    0.7;                     !- Visible Absorptance

  Material,
    2.5 IN DENSE INSULATION, !- Name
    VeryRough,               !- Roughness
    0.0635,                  !- Thickness {m}
    0.04,                    !- Conductivity {W/m-K}
    91.30000,                !- Density {kg/m3}
    830.0000,                !- Specific Heat {J/kg-K}
    0.9000000,               !- Thermal Absorptance
    0.5000000,               !- Solar Absorptance
    0.5000000;               !- Visible Absorptance

  Material,
    BLBD - PLYWOOD 1 / 2 IN, !- Name
    MediumSmooth,            !- Roughness
    9.9999998E-03,           !- Thickness {m}
    0.1100000,               !- Conductivity {W/m-K}
    544.6200,                !- Density {kg/m3}
    1210.000,                !- Specific Heat {J/kg-K}
    0.9000000,               !- Thermal Absorptance
    0.7800000,               !- Solar Absorptance
    0.7800000;               !- Visible Absorptance

  Material,
    E6 - 1 / 2 IN GYP SHEATHING BOARD,  !- Name
    Smooth,                  !- Roughness
    9.9999998E-03,           !- Thickness {m}
    0.1600000,               !- Conductivity {W/m-K}
    784.9000,                !- Density {kg/m3}
    830.0000,                !- Specific Heat {J/kg-K}
    0.9000000,               !- Thermal Absorptance
    0.9200000,               !- Solar Absorptance
    0.9200000;               !- Visible Absorptance

  Material,
    AC02,                    !- Name
    MediumSmooth,            !- Roughness
    1.2700000E-02,           !- Thickness {m}
    5.7000000E-02,           !- Conductivity {W/m-K}
    288.0000,                !- Density {kg/m3}
    1339.000,                !- Specific Heat {J/kg-K}
    0.9000000,               !- Thermal Absorptance
    0.7000000,               !- Solar Absorptance
    0.7000000;               !- Visible Absorptance

!  nominal R-13 goes to R-10.4 and density goes up
!  patterned after composite wall data for R-11 insulation in metal framing

  Material,
    INS-R_11-metalframe,     !- Name
    MediumRough,             !- Roughness
    0.0889,                  !- Thickness {m}
    0.06,                    !- Conductivity {W/m-K}
    118,                     !- Density {kg/m3}
    836.8,                   !- Specific Heat {J/kg-K}
    0.9,                     !- Thermal Absorptance
    0.7,                     !- Solar Absorptance
    0.7;                     !- Visible Absorptance

  Material,
    BLBD - WOOD SUBFLOOR 3 / 4 IN,  !- Name
    MediumRough,             !- Roughness
    9.9999998E-03,           !- Thickness {m}
    0.1100000,               !- Conductivity {W/m-K}
    544.6200,                !- Density {kg/m3}
    1420.000,                !- Specific Heat {J/kg-K}
    0.9000000,               !- Thermal Absorptance
    0.7800000,               !- Solar Absorptance
    0.7800000;               !- Visible Absorptance

  Material,
    FINISH FLOORING - TILE 1 / 4 IN,  !- Name
    Smooth,                  !- Roughness
    0.00635,                 !- Thickness {m}
    0.1700000,               !- Conductivity {W/m-K}
    1922.210,                !- Density {kg/m3}
    1250.000,                !- Specific Heat {J/kg-K}
    0.9000000,               !- Thermal Absorptance
    0.5000000,               !- Solar Absorptance
    0.5000000;               !- Visible Absorptance

  Material,
    Masonite Underlayment 1 / 4 IN,  !- Name
    Smooth,                  !- Roughness
    0.00635,                 !- Thickness {m}
    0.240000,                !- Conductivity {W/m-K}
    816,                     !- Density {kg/m3}
    880.000,                 !- Specific Heat {J/kg-K}
    0.9000000,               !- Thermal Absorptance
    0.5000000,               !- Solar Absorptance
    0.5000000;               !- Visible Absorptance

  Material,
    Sound Absorption Blanket 6 IN,  !- Name
    Smooth,                  !- Roughness
    0.1524,                  !- Thickness {m}
    0.049,                   !- Conductivity {W/m-K}
    260,                     !- Density {kg/m3}
    800,                     !- Specific Heat {J/kg-K}
    0.9,                     !- Thermal Absorptance
    0.5,                     !- Solar Absorptance
    0.5;                     !- Visible Absorptance

  WindowMaterial:Glazing,
    LoE SPEC SEL CLEAR 6MM,  !- Name
    SpectralAverage,         !- Optical Data Type
    ,                        !- Window Glass Spectral Data Set Name
    .006,                    !- Thickness {m}
    .510,                    !- Solar Transmittance at Normal Incidence
    .300,                    !- Front Side Solar Reflectance at Normal Incidence
    .420,                    !- Back Side Solar Reflectance at Normal Incidence
    .770,                    !- Visible Transmittance at Normal Incidence
    .070,                    !- Front Side Visible Reflectance at Normal Incidence
    .060,                    !- Back Side Visible Reflectance at Normal Incidence
    .0,                      !- Infrared Transmittance at Normal Incidence
    .84,                     !- Front Side Infrared Hemispherical Emissivity
    .03,                     !- Back Side Infrared Hemispherical Emissivity
    .9;                      !- Conductivity {W/m-K}

  WindowMaterial:Glazing,
    103 Clear_6.DAT,         !- Name
    SpectralAverage,         !- Optical Data Type
    ,                        !- Window Glass Spectral Data Set Name
    0.0057,                  !- Thickness {m}
    0.771,                   !- Solar Transmittance at Normal Incidence
    0.07,                    !- Front Side Solar Reflectance at Normal Incidence
    0.07,                    !- Back Side Solar Reflectance at Normal Incidence
    0.884,                   !- Visible Transmittance at Normal Incidence
    0.08,                    !- Front Side Visible Reflectance at Normal Incidence
    0.08,                    !- Back Side Visible Reflectance at Normal Incidence
    0,                       !- Infrared Transmittance at Normal Incidence
    0.84,                    !- Front Side Infrared Hemispherical Emissivity
    0.84,                    !- Back Side Infrared Hemispherical Emissivity
    1.0;                     !- Conductivity {W/m-K}

!

  WindowMaterial:Gas,
    Argon 6.3MM,             !- Name
    Argon,                   !- Gas Type
    0.0063;                  !- Thickness {m}

!-   ===========  ALL OBJECTS IN CLASS: CONSTRUCTION ===========
! constructions

  Construction,
    SIP-6.5inch,             !- Name
    BLBD - PLYWOOD 1 / 2 IN, !- Outside Layer
    SIP-Foam-5.5inch,        !- Layer 2
    BLBD - PLYWOOD 1 / 2 IN, !- Layer 3
    E6 - 1 / 2 IN GYP SHEATHING BOARD;  !- Layer 4

  Construction,
    SIP-8.5inch,             !- Name
    BLBD - PLYWOOD 1 / 2 IN, !- Outside Layer
    SIP-Foam-7.5inch,        !- Layer 2
    BLBD - PLYWOOD 1 / 2 IN; !- Layer 3

  Construction,
    INT-WALL,                !- Name
    E6 - 1 / 2 IN GYP SHEATHING BOARD,  !- Outside Layer
    INS-R_11-metalframe,     !- Layer 2
    E6 - 1 / 2 IN GYP SHEATHING BOARD;  !- Layer 3

  Construction,
    INT-FLOOR-TOPSIDE,       !- Name
    Sound Absorption Blanket 6 IN,  !- Outside Layer
    BLBD - WOOD SUBFLOOR 3 / 4 IN,  !- Layer 2
    Masonite Underlayment 1 / 4 IN,  !- Layer 3
    FINISH FLOORING - TILE 1 / 4 IN;  !- Layer 4

  Construction,
    INT-FLOOR-UNDERSIDE,     !- Name
    FINISH FLOORING - TILE 1 / 4 IN,  !- Outside Layer
    Masonite Underlayment 1 / 4 IN,  !- Layer 2
    BLBD - WOOD SUBFLOOR 3 / 4 IN,  !- Layer 3
    Sound Absorption Blanket 6 IN;  !- Layer 4

  Construction,
    EXT-FLOOR-TOPSIDE,       !- Name
    2.5 IN DENSE INSULATION, !- Outside Layer
    BLBD - WOOD SUBFLOOR 3 / 4 IN,  !- Layer 2
    FINISH FLOORING - TILE 1 / 4 IN;  !- Layer 3

  Construction,
    CBF-Windows,             !- Name
    LoE SPEC SEL CLEAR 6MM,  !- Outside Layer
    Argon 6.3MM,             !- Layer 2
    103 Clear_6.DAT;         !- Layer 3

!-   ===========  ALL OBJECTS IN CLASS: ZONE ===========
!Zones
!zone origins at lower, southwest corner.
!world origin is at intersection of "A" and "1" and elevation of 20' 5.5"
!

  Zone,
    ZN1-WestConf,            !- Name
    0,                       !- Direction of Relative North {deg}
    18.288,                  !- X Origin {m}
    0,                       !- Y Origin {m}
    0,                       !- Z Origin {m}
    1,                       !- Type
    1,                       !- Multiplier
    3.712,                   !- Ceiling Height {m}
    0;                       !- Volume {m3}

  Zone,
    ZN2-EastConf,            !- Name
    0,                       !- Direction of Relative North {deg}
    24.384,                  !- X Origin {m}
    0,                       !- Y Origin {m}
    0,                       !- Z Origin {m}
    1,                       !- Type
    1,                       !- Multiplier
    3.712,                   !- Ceiling Height {m}
    0;                       !- Volume {m3}

  Zone,
    ZN3-SWMain,              !- Name
    0,                       !- Direction of Relative North {deg}
    0,                       !- X Origin {m}
    27.55457,                !- Y Origin {m}
    0,                       !- Z Origin {m}
    1,                       !- Type
    1,                       !- Multiplier
    ,                        !- Ceiling Height {m}
    0;                       !- Volume {m3}

  Zone,
    ZN4-NWMain,              !- Name
    0,                       !- Direction of Relative North {deg}
    0,                       !- X Origin {m}
    35.88959,                !- Y Origin {m}
    0,                       !- Z Origin {m}
    1,                       !- Type
    1,                       !- Multiplier
    ,                        !- Ceiling Height {m}
    0;                       !- Volume {m3}

  Zone,
    ZN5-Server,              !- Name
    0,                       !- Direction of Relative North {deg}
    24.384,                  !- X Origin {m}
    34.46773,                !- Y Origin {m}
    0,                       !- Z Origin {m}
    1,                       !- Type
    1,                       !- Multiplier
    ,                        !- Ceiling Height {m}
    0;                       !- Volume {m3}

  Zone,
    ZN6-ExhibtLobby,         !- Name
    0,                       !- Direction of Relative North {deg}
    30.48,                   !- X Origin {m}
    24.5491,                 !- Y Origin {m}
    0,                       !- Z Origin {m}
    1,                       !- Type
    1,                       !- Multiplier
    ,                        !- Ceiling Height {m}
    0;                       !- Volume {m3}

  Zone,
    ZN7-SEMain,              !- Name
    0,                       !- Direction of Relative North {deg}
    36.576,                  !- X Origin {m}
    27.55457,                !- Y Origin {m}
    0,                       !- Z Origin {m}
    1,                       !- Type
    1,                       !- Multiplier
    ,                        !- Ceiling Height {m}
    0;                       !- Volume {m3}

  Zone,
    ZN8-NEMain,              !- Name
    0,                       !- Direction of Relative North {deg}
    36.576,                  !- X Origin {m}
    35.88959,                !- Y Origin {m}
    0,                       !- Z Origin {m}
    1,                       !- Type
    1,                       !- Multiplier
    ,                        !- Ceiling Height {m}
    0;                       !- Volume {m3}

  Zone,
    ZN9-SouthConf,           !- Name
    0,                       !- Direction of Relative North {deg}
    21.336,                  !- X Origin {m}
    0,                       !- Y Origin {m}
    4.1148,                  !- Z Origin {m}
    1,                       !- Type
    1;                       !- Multiplier

  Zone,
    ZN10-KitchDine,          !- Name
    0,                       !- Direction of Relative North {deg}
    18.288,                  !- X Origin {m}
    6.096,                   !- Y Origin {m}
    4.1148,                  !- Z Origin {m}
    1,                       !- Type
    1;                       !- Multiplier

  Zone,
    ZN11-EastConf,           !- Name
    0,                       !- Direction of Relative North {deg}
    24.907,                  !- X Origin {m}
    6.096,                   !- Y Origin {m}
    4.1148,                  !- Z Origin {m}
    1,                       !- Type
    1;                       !- Multiplier

  Zone,
    ZN12-Link,               !- Name
    0,                       !- Direction of Relative North {deg}
    24.384,                  !- X Origin {m}
    18.288,                  !- Y Origin {m}
    4.1148,                  !- Z Origin {m}
    1,                       !- Type
    1;                       !- Multiplier

  Zone,
    ZN13-WestWindows,        !- Name
    0,                       !- Direction of Relative North {deg}
    3.089,                   !- X Origin {m}
    27.55457,                !- Y Origin {m}
    4.1148,                  !- Z Origin {m}
    1,                       !- Type
    1;                       !- Multiplier

  Zone,
    ZN14-SW_Main,            !- Name
    0,                       !- Direction of Relative North {deg}
    0,                       !- X Origin {m}
    27.55457,                !- Y Origin {m}
    4.1148,                  !- Z Origin {m}
    1,                       !- Type
    1;                       !- Multiplier

  Zone,
    ZN15-NW_Main,            !- Name
    0,                       !- Direction of Relative North {deg}
    0,                       !- X Origin {m}
    36.772,                  !- Y Origin {m}
    4.1148,                  !- Z Origin {m}
    1,                       !- Type
    1;                       !- Multiplier

  Zone,
    ZN16-EastWindows,        !- Name
    0,                       !- Direction of Relative North {deg}
    36.576,                  !- X Origin {m}
    27.55457,                !- Y Origin {m}
    4.1148,                  !- Z Origin {m}
    1,                       !- Type
    1;                       !- Multiplier

  Zone,
    ZN17-EastMain,           !- Name
    0,                       !- Direction of Relative North {deg}
    36.576,                  !- X Origin {m}
    31.4279,                 !- Y Origin {m}
    4.1148,                  !- Z Origin {m}
    1,                       !- Type
    1;                       !- Multiplier

  Zone,
    ZN18-NEMain,             !- Name
    0,                       !- Direction of Relative North {deg}
    36.576,                  !- X Origin {m}
    36.772,                  !- Y Origin {m}
    4.1148,                  !- Z Origin {m}
    1,                       !- Type
    1;                       !- Multiplier

  Zone,
    ZN19-AtticConf,          !- Name
    0,                       !- Direction of Relative North {deg}
    18.288,                  !- X Origin {m}
    3.048,                   !- Y Origin {m}
    7.6327,                  !- Z Origin {m}
    1,                       !- Type
    1;                       !- Multiplier

!-   ===========  ALL OBJECTS IN CLASS: SURFACEGEOMETRY ===========

  GlobalGeometryRules,
    UpperLeftCorner,         !- Starting Vertex Position
    Counterclockwise,        !- Vertex Entry Direction
    Relative;                !- Coordinate System

!-   ===========  ALL OBJECTS IN CLASS: SURFACE:HEATTRANSFER ===========
!begin ZN1 surfaces

  BuildingSurface:Detailed,
    ZN1:S_Floor,             !- Name
    Floor,                   !- Surface Type
    EXT-FLOOR-TOPSIDE,       !- Construction Name
    ZN1-WestConf,            !- Zone Name
    Ground,                  !- Outside Boundary Condition
    ,                        !- Outside Boundary Condition Object
    NoSun,                   !- Sun Exposure
    NoWind,                  !- Wind Exposure
    1.0,                     !- View Factor to Ground
    4,                       !- Number of Vertices
    0,0,0,  !- X,Y,Z ==> Vertex 1 {m}
    0,12.192,0,  !- X,Y,Z ==> Vertex 2 {m}
    6.096,12.192,0,  !- X,Y,Z ==> Vertex 3 {m}
    6.096,0,0;  !- X,Y,Z ==> Vertex 4 {m}

  BuildingSurface:Detailed,
    ZN1:N_Floor,             !- Name
    Floor,                   !- Surface Type
    EXT-FLOOR-TOPSIDE,       !- Construction Name
    ZN1-WestConf,            !- Zone Name
    Ground,                  !- Outside Boundary Condition
    ,                        !- Outside Boundary Condition Object
    NoSun,                   !- Sun Exposure
    NoWind,                  !- Wind Exposure
    0,                       !- View Factor to Ground
    4,                       !- Number of Vertices
    0,12.192,0,  !- X,Y,Z ==> Vertex 1 {m}
    0,18.288,0,  !- X,Y,Z ==> Vertex 2 {m}
    6.096,18.288,0,  !- X,Y,Z ==> Vertex 3 {m}
    6.096,12.192,0;  !- X,Y,Z ==> Vertex 4 {m}

  BuildingSurface:Detailed,
    ZN1:S_Wall,              !- Name
    Wall,                    !- Surface Type
    SIP-6.5inch,             !- Construction Name
    ZN1-WestConf,            !- Zone Name
    Outdoors,                !- Outside Boundary Condition
    ,                        !- Outside Boundary Condition Object
    SunExposed,              !- Sun Exposure
    WindExposed,             !- Wind Exposure
    .5,                      !- View Factor to Ground
    4,                       !- Number of Vertices
    0,0,4.5212,  !- X,Y,Z ==> Vertex 1 {m}
    0,0,0,  !- X,Y,Z ==> Vertex 2 {m}
    6.096,0,0,  !- X,Y,Z ==> Vertex 3 {m}
    6.096,0,4.5212;  !- X,Y,Z ==> Vertex 4 {m}

  BuildingSurface:Detailed,
    ZN1:W_Wall,              !- Name
    Wall,                    !- Surface Type
    SIP-6.5inch,             !- Construction Name
    ZN1-WestConf,            !- Zone Name
    Outdoors,                !- Outside Boundary Condition
    ,                        !- Outside Boundary Condition Object
    SunExposed,              !- Sun Exposure
    WindExposed,             !- Wind Exposure
    .5,                      !- View Factor to Ground
    4,                       !- Number of Vertices
    0,18.288,4.5212,  !- X,Y,Z ==> Vertex 1 {m}
    0,18.2880,0,  !- X,Y,Z ==> Vertex 2 {m}
    0,0,0,  !- X,Y,Z ==> Vertex 3 {m}
    0,0,4.5212;  !- X,Y,Z ==> Vertex 4 {m}

! DLM, empty zone name?
!  BuildingSurface:Detailed,
!    ZN1:N_Wall,              !- Name
!    Wall,                    !- Surface Type
!    SIP-6.5inch,             !- Construction Name
!    ,                        !- Zone Name
!    Outdoors,                !- Outside Boundary Condition
!    ,                        !- Outside Boundary Condition Object
!    SunExposed,              !- Sun Exposure
!    WindExposed,             !- Wind Exposure
!    .5,                      !- View Factor to Ground
!    4,                       !- Number of Vertices
!    6.096,18.288,4.5212,  !- X,Y,Z ==> Vertex 1
!    6.096,18.2880,0,  !- X,Y,Z ==> Vertex 2
!    0,18.2880,0,  !- X,Y,Z ==> Vertex 3
!    0,18.2880,4.5212;  !- X,Y,Z ==> Vertex 4

  BuildingSurface:Detailed,
    ZN1:Wall:Int,            !- Name
    Wall,                    !- Surface Type
    INT-WALL,                !- Construction Name
    ZN1-WestConf,            !- Zone Name
    Surface,                 !- Outside Boundary Condition
    ZN2:Wall:Int,            !- Outside Boundary Condition Object
    NoSun,                   !- Sun Exposure
    NoWind,                  !- Wind Exposure
    0,                       !- View Factor to Ground
    4,                       !- Number of Vertices
    6.096,12.192,4.5212,  !- X,Y,Z ==> Vertex 1 {m}
    6.096,12.192,0,  !- X,Y,Z ==> Vertex 2 {m}
    6.096,18.288,0,  !- X,Y,Z ==> Vertex 3 {m}
    6.096,18.288,4.5212;  !- X,Y,Z ==> Vertex 4 {m}

  BuildingSurface:Detailed,
    ZN1:S_Roof,              !- Name
    Roof,                    !- Surface Type
    SIP-8.5inch,             !- Construction Name
    ZN1-WestConf,            !- Zone Name
    Outdoors,                !- Outside Boundary Condition
    ,                        !- Outside Boundary Condition Object
    SunExposed,              !- Sun Exposure
    WindExposed,             !- Wind Exposure
    0,                       !- View Factor to Ground
    4,                       !- Number of Vertices
    0,6.096,4.5212,  !- X,Y,Z ==> Vertex 1 {m}
    0,0,4.5212,  !- X,Y,Z ==> Vertex 2 {m}
    3.048,0,4.5212,  !- X,Y,Z ==> Vertex 3 {m}
    3.048,6.096,4.5212;  !- X,Y,Z ==> Vertex 4 {m}

  BuildingSurface:Detailed,
    ZN1:S_Ceiling,           !- Name
    Ceiling,                 !- Surface Type
    INT-FLOOR-UNDERSIDE,     !- Construction Name
    ZN1-WestConf,            !- Zone Name
    Surface,                 !- Outside Boundary Condition
    ZN9:W_Floor,             !- Outside Boundary Condition Object
    NoSun,                   !- Sun Exposure
    NoWind,                  !- Wind Exposure
    0,                       !- View Factor to Ground
    4,                       !- Number of Vertices
    3.048,6.096,4.5212,  !- X,Y,Z ==> Vertex 1 {m}
    3.048,0,4.5212,  !- X,Y,Z ==> Vertex 2 {m}
    6.096,0,4.5212,  !- X,Y,Z ==> Vertex 3 {m}
    6.096,6.096,4.5212;  !- X,Y,Z ==> Vertex 4 {m}

  BuildingSurface:Detailed,
    ZN1:N_Ceiling,           !- Name
    Ceiling,                 !- Surface Type
    INT-FLOOR-UNDERSIDE,     !- Construction Name
    ZN1-WestConf,            !- Zone Name
    Surface,                 !- Outside Boundary Condition
    ZN10:MainFloor,          !- Outside Boundary Condition Object
    NoSun,                   !- Sun Exposure
    NoWind,                  !- Wind Exposure
    0,                       !- View Factor to Ground
    4,                       !- Number of Vertices
    0,18.288,4.5212,  !- X,Y,Z ==> Vertex 1 {m}
    0,6.096,4.5212,  !- X,Y,Z ==> Vertex 2 {m}
    6.096,6.096,4.5212,  !- X,Y,Z ==> Vertex 3 {m}
    6.096,18.288,4.5212;  !- X,Y,Z ==> Vertex 4 {m}

!begin ZN2 surfaces

  BuildingSurface:Detailed,
    ZN2:S_FLoor,             !- Name
    Floor,                   !- Surface Type
    EXT-FLOOR-TOPSIDE,       !- Construction Name
    ZN2-EastConf,            !- Zone Name
    Ground,                  !- Outside Boundary Condition