
OS:Version,
  {83560b02-6762-4ae8-8136-6be0cee4463c}, !- Handle
  1.14.0;                                 !- Version Identifier

OS:SimulationControl,
  {3d40905e-4eac-4553-ba6b-4e36fc1b2bbf}, !- Handle
  Yes,                                    !- Do Zone Sizing Calculation
  Yes,                                    !- Do System Sizing Calculation
  ,                                       !- Do Plant Sizing Calculation
  No,                                     !- Run Simulation for Sizing Periods
  Yes;                                    !- Run Simulation for Weather File Run Periods

OS:Timestep,
  {8c56bd58-f0b4-4989-b997-76aedfcee207}, !- Handle
  6;                                      !- Number of Timesteps per Hour

OS:RunPeriod,
  {c25b1108-d0a2-41ff-a983-8b00e65e4ca7}, !- Handle
  Run Period 1,                           !- Name
  1,                                      !- Begin Month
  1,                                      !- Begin Day of Month
  12,                                     !- End Month
  31,                                     !- End Day of Month
  No,                                     !- Use Weather File Holidays and Special Days
  No,                                     !- Use Weather File Daylight Saving Period
  No,                                     !- Apply Weekend Holiday Rule
  Yes,                                    !- Use Weather File Rain Indicators
  Yes,                                    !- Use Weather File Snow Indicators
  1;                                      !- Number of Times Runperiod to be Repeated

OS:SurfaceConvectionAlgorithm:Inside,
  {3e86195e-1159-4aba-8a5f-2cfb8d9eaa64}, !- Handle
  TARP;                                   !- Algorithm

OS:SurfaceConvectionAlgorithm:Outside,
  {95ea033e-d1d4-4334-bd7f-e557ff20c7c2}, !- Handle
  DOE-2;                                  !- Algorithm

OS:HeatBalanceAlgorithm,
  {4c770ded-68fd-47bc-b702-24a1ac50c942}, !- Handle
  ConductionTransferFunction,             !- Algorithm
  200;                                    !- Surface Temperature Upper Limit {C}

OS:ZoneAirHeatBalanceAlgorithm,
  {fcf38f66-6992-4891-90b8-cc8dfad2007b}, !- Handle
  ThirdOrderBackwardDifference;           !- Algorithm

OS:ConvergenceLimits,
  {52511e31-299c-4301-8859-481448e580d4}, !- Handle
  1;                                      !- Minimum System Timestep {minutes}

OS:ShadowCalculation,
  {c5daa8c6-4756-4c18-84e7-95f66eb50e35}, !- Handle
  20,                                     !- Calculation Frequency
  15000;                                  !- Maximum Figures in Shadow Overlap Calculations

OS:Site,
  {045c0b17-fad4-4e62-a22d-f35680c5fe4c}, !- Handle
  Site 1,                                 !- Name
  41.77,                                  !- Latitude {deg}
  -87.75,                                 !- Longitude {deg}
  -6,                                     !- Time Zone {hr}
  190,                                    !- Elevation {m}
  ;                                       !- Terrain

OS:Site:GroundTemperature:BuildingSurface,
  {0f224aa3-1a50-43ad-bfbf-cc4ed5a4c495}, !- Handle
  19.527,                                 !- January Ground Temperature {C}
  19.502,                                 !- February Ground Temperature {C}
  19.536,                                 !- March Ground Temperature {C}
  19.598,                                 !- April Ground Temperature {C}
  20.002,                                 !- May Ground Temperature {C}
  21.64,                                  !- June Ground Temperature {C}
  22.225,                                 !- July Ground Temperature {C}
  22.375,                                 !- August Ground Temperature {C}
  21.449,                                 !- September Ground Temperature {C}
  20.121,                                 !- October Ground Temperature {C}
  19.802,                                 !- November Ground Temperature {C}
  19.633;                                 !- December Ground Temperature {C}

OS:Site:GroundTemperature:Deep,
  {01c585dc-9fbf-48b5-80cf-489798debd98}, !- Handle
  19.527,                                 !- January Deep Ground Temperature {C}
  19.502,                                 !- February Deep Ground Temperature {C}
  19.536,                                 !- March Deep Ground Temperature {C}
  19.598,                                 !- April Deep Ground Temperature {C}
  20.002,                                 !- May Deep Ground Temperature {C}
  21.64,                                  !- June Deep Ground Temperature {C}
  22.225,                                 !- July Deep Ground Temperature {C}
  22.375,                                 !- August Deep Ground Temperature {C}
  21.449,                                 !- September Deep Ground Temperature {C}
  20.121,                                 !- October Deep Ground Temperature {C}
  19.802,                                 !- November Deep Ground Temperature {C}
  19.633;                                 !- December Deep Ground Temperature {C}

OS:Site:WaterMainsTemperature,
  {24618ddb-88d2-4ab4-af90-53d9b8936f48}, !- Handle
  Correlation,                            !- Calculation Method
  ,                                       !- Temperature Schedule Name
  9.69,                                   !- Annual Average Outdoor Air Temperature {C}
  28.1;                                   !- Maximum Difference In Monthly Average Outdoor Air Temperatures {deltaC}

OS:SizingPeriod:DesignDay,
  {55c986b3-1c66-45e3-a6f4-b114ef6faf51}, !- Handle
  Sizing Period Design Day 1,             !- Name
  -20.6,                                  !- Maximum Dry-Bulb Temperature {C}
  0,                                      !- Daily Dry-Bulb Temperature Range {deltaC}
  -20.6,                                  !- Humidity Indicating Conditions at Maximum Dry-Bulb
  99063,                                  !- Barometric Pressure {Pa}
  4.9,                                    !- Wind Speed {m/s}
  270,                                    !- Wind Direction {deg}
  0,                                      !- Sky Clearness
  0,                                      !- Rain Indicator
  0,                                      !- Snow Indicator
  21,                                     !- Day of Month
  1,                                      !- Month
  WinterDesignDay,                        !- Day Type
  0,                                      !- Daylight Saving Time Indicator
  WetBulb,                                !- Humidity Indicating Type
  ,                                       !- Humidity Indicating Day Schedule Name
  DefaultMultipliers,                     !- Dry-Bulb Temperature Range Modifier Type
  ,                                       !- Dry-Bulb Temperature Range Modifier Schedule Name
  AshraeClearSky;                         !- Solar Model Indicator

OS:SizingPeriod:DesignDay,
  {18c31e45-941c-4133-982b-454fb36e157a}, !- Handle
  Sizing Period Design Day 2,             !- Name
  33.2,                                   !- Maximum Dry-Bulb Temperature {C}
  10.7,                                   !- Daily Dry-Bulb Temperature Range {deltaC}
  23.8,                                   !- Humidity Indicating Conditions at Maximum Dry-Bulb
  99063,                                  !- Barometric Pressure {Pa}
  5.3,                                    !- Wind Speed {m/s}
  230,                                    !- Wind Direction {deg}
  1,                                      !- Sky Clearness
  0,                                      !- Rain Indicator
  0,                                      !- Snow Indicator
  21,                                     !- Day of Month
  7,                                      !- Month
  SummerDesignDay,                        !- Day Type
  0,                                      !- Daylight Saving Time Indicator
  WetBulb,                                !- Humidity Indicating Type
  ,                                       !- Humidity Indicating Day Schedule Name
  DefaultMultipliers,                     !- Dry-Bulb Temperature Range Modifier Type
  ,                                       !- Dry-Bulb Temperature Range Modifier Schedule Name
  AshraeClearSky;                         !- Solar Model Indicator

OS:ScheduleTypeLimits,
  {ee6fa076-b9f2-455a-a59b-55cb6d2249c0}, !- Handle
  Temperature,                            !- Name
  -60,                                    !- Lower Limit Value
  200,                                    !- Upper Limit Value
  CONTINUOUS,                             !- Numeric Type
  Temperature;                            !- Unit Type

OS:DefaultScheduleSet,
  {c43866ad-d22c-40b8-918e-734788d36d75}, !- Handle
  Default Schedules,                      !- Name
  ,                                       !- Hours of Operation Schedule Name
  {4bfd5e68-6c26-435d-84af-ba832ae03010}, !- Number of People Schedule Name
  {4ab02a68-91ae-4254-9979-53c095f575d0}, !- People Activity Level Schedule Name
  {840031d7-ce79-41b9-a87f-0b7cca5f1f48}, !- Lighting Schedule Name
  {df23ac16-094c-4d85-9265-64293a0b2622}, !- Electric Equipment Schedule Name
  {ec18e16e-0470-4ebf-8312-77fd6c80169c}, !- Gas Equipment Schedule Name
  {4d4da8be-26f2-4041-8437-787962fba48f}, !- Hot Water Equipment Schedule Name
  {a9bb0f97-c374-4d4e-8c96-f0dc500f891d}, !- Infiltration Schedule Name
  ,                                       !- Steam Equipment Schedule Name
  ;                                       !- Other Equipment Schedule Name

OS:Schedule:Ruleset,
  {4bfd5e68-6c26-435d-84af-ba832ae03010}, !- Handle
  Medium Office Number of People Schedule, !- Name
  {f08f92b1-9c33-4528-90e2-a6e110c30052}, !- Schedule Type Limits Name
  {3318c4d7-aa30-44c3-9b99-0e497fcd2dfa}, !- Default Day Schedule Name
  {27d238b0-64f4-44c7-b271-0c57400bfaaf}; !- Summer Design Day Schedule Name

OS:Schedule:Day,
  {3318c4d7-aa30-44c3-9b99-0e497fcd2dfa}, !- Handle
  Medium Office Number of People All Other Days Schedule, !- Name
  {f08f92b1-9c33-4528-90e2-a6e110c30052}, !- Schedule Type Limits Name
  ,                                       !- Interpolate to Timestep
  24,                                     !- Hour 1
  0,                                      !- Minute 1
  0;                                      !- Value Until Time 1

OS:Schedule:Day,
  {ae505a59-8f9b-435c-b1e5-584914cf9c90}, !- Handle
  Medium Office Number of People Summer Design Day Schedule, !- Name
  ,                                       !- Schedule Type Limits Name
  ,                                       !- Interpolate to Timestep
  6,                                      !- Hour 1
  0,                                      !- Minute 1
  0,                                      !- Value Until Time 1
  22,                                     !- Hour 2
  0,                                      !- Minute 2
  1,                                      !- Value Until Time 2
  24,                                     !- Hour 3
  0,                                      !- Minute 3
  0.05;                                   !- Value Until Time 3

OS:Schedule:Day,
  {27d238b0-64f4-44c7-b271-0c57400bfaaf}, !- Handle
  Medium Office Number of People Summer Design Day Schedule 1, !- Name
  {f08f92b1-9c33-4528-90e2-a6e110c30052}, !- Schedule Type Limits Name
  ,                                       !- Interpolate to Timestep
  6,                                      !- Hour 1
  0,                                      !- Minute 1
  0,                                      !- Value Until Time 1
  22,                                     !- Hour 2
  0,                                      !- Minute 2
  1,                                      !- Value Until Time 2
  24,                                     !- Hour 3
  0,                                      !- Minute 3
  0.05;                                   !- Value Until Time 3

OS:Schedule:Rule,
  {bbc2ae1c-ab0b-4b2f-b59f-c10d95709637}, !- Handle
  Medium Office Number of People Schedule Weekdays Rule, !- Name
  {4bfd5e68-6c26-435d-84af-ba832ae03010}, !- Schedule Ruleset Name
  1,                                      !- Rule Order
  {cb47a675-be5e-4bf7-8e8b-34ebabc43884}, !- Day Schedule Name
  ,                                       !- Apply Sunday
  Yes,                                    !- Apply Monday
  Yes,                                    !- Apply Tuesday
  Yes,                                    !- Apply Wednesday
  Yes,                                    !- Apply Thursday
  Yes;                                    !- Apply Friday

OS:Schedule:Day,
  {cb47a675-be5e-4bf7-8e8b-34ebabc43884}, !- Handle
  Medium Office Number of People Weekdays Schedule, !- Name
  {f08f92b1-9c33-4528-90e2-a6e110c30052}, !- Schedule Type Limits Name
  ,                                       !- Interpolate to Timestep
  6,                                      !- Hour 1
  0,                                      !- Minute 1
  0,                                      !- Value Until Time 1
  7,                                      !- Hour 2
  0,                                      !- Minute 2
  0.1,                                    !- Value Until Time 2
  8,                                      !- Hour 3
  0,                                      !- Minute 3
  0.2,                                    !- Value Until Time 3
  12,                                     !- Hour 4
  0,                                      !- Minute 4
  0.95,                                   !- Value Until Time 4
  13,                                     !- Hour 5
  0,                                      !- Minute 5
  0.5,                                    !- Value Until Time 5
  17,                                     !- Hour 6
  0,                                      !- Minute 6
  0.95,                                   !- Value Until Time 6
  18,                                     !- Hour 7
  0,                                      !- Minute 7
  0.7,                                    !- Value Until Time 7
  20,                                     !- Hour 8
  0,                                      !- Minute 8
  0.4,                                    !- Value Until Time 8
  22,                                     !- Hour 9
  0,                                      !- Minute 9
  0.1,                                    !- Value Until Time 9
  24,                                     !- Hour 10
  0,                                      !- Minute 10
  0.05;                                   !- Value Until Time 10

OS:Schedule:Rule,
  {7beb55d3-8a1e-43ea-ab2d-bb941196a28f}, !- Handle
  Medium Office Number of People Schedule Saturday Rule, !- Name
  {4bfd5e68-6c26-435d-84af-ba832ae03010}, !- Schedule Ruleset Name
  0,                                      !- Rule Order
  {b66ee2a5-46ba-4144-b9aa-c986a2af8ee7}, !- Day Schedule Name
  ,                                       !- Apply Sunday
  ,                                       !- Apply Monday
  ,                                       !- Apply Tuesday
  ,                                       !- Apply Wednesday
  ,                                       !- Apply Thursday
  ,                                       !- Apply Friday
  Yes;                                    !- Apply Saturday

OS:Schedule:Day,
  {b66ee2a5-46ba-4144-b9aa-c986a2af8ee7}, !- Handle
  Medium Office Number of People Saturday Schedule, !- Name
  {f08f92b1-9c33-4528-90e2-a6e110c30052}, !- Schedule Type Limits Name
  ,                                       !- Interpolate to Timestep
  6,                                      !- Hour 1
  0,                                      !- Minute 1
  0,                                      !- Value Until Time 1
  8,                                      !- Hour 2
  0,                                      !- Minute 2
  0.1,                                    !- Value Until Time 2
  14,                                     !- Hour 3
  0,                                      !- Minute 3
  0.5,                                    !- Value Until Time 3
  17,                                     !- Hour 4
  0,                                      !- Minute 4
  0.1,                                    !- Value Until Time 4
  24,                                     !- Hour 5
  0,                                      !- Minute 5
  0;                                      !- Value Until Time 5

OS:ScheduleTypeLimits,
  {f08f92b1-9c33-4528-90e2-a6e110c30052}, !- Handle
  Fractional,                             !- Name
  0,                                      !- Lower Limit Value
  1,                                      !- Upper Limit Value
  Continuous;                             !- Numeric Type

OS:Schedule:Ruleset,
  {4ab02a68-91ae-4254-9979-53c095f575d0}, !- Handle
  Medium Office People Activity Level Schedule, !- Name
  {5eba8be0-84b4-4889-8e31-a2840c9a387e}, !- Schedule Type Limits Name
  {4a582a73-88a0-46b3-b688-8395a5905a92}; !- Default Day Schedule Name

OS:Schedule:Day,
  {4a582a73-88a0-46b3-b688-8395a5905a92}, !- Handle
  Medium Office People Activity Level All Days Schedule, !- Name
  {5eba8be0-84b4-4889-8e31-a2840c9a387e}, !- Schedule Type Limits Name
  ,                                       !- Interpolate to Timestep
  24,                                     !- Hour 1
  0,                                      !- Minute 1
  120;                                    !- Value Until Time 1

OS:ScheduleTypeLimits,
  {5eba8be0-84b4-4889-8e31-a2840c9a387e}, !- Handle
  ActivityLevel,                          !- Name
  0,                                      !- Lower Limit Value
  ,                                       !- Upper Limit Value
  Continuous,                             !- Numeric Type
  ActivityLevel;                          !- Unit Type

OS:Schedule:Ruleset,
  {840031d7-ce79-41b9-a87f-0b7cca5f1f48}, !- Handle
  Medium Office Lighting Schedule,        !- Name
  {f08f92b1-9c33-4528-90e2-a6e110c30052}, !- Schedule Type Limits Name
  {d0462f03-f50c-44cc-89e4-a01efc9b45cb}, !- Default Day Schedule Name
  {5782e49f-b8e0-4390-8dde-e2eaf84d0368}, !- Summer Design Day Schedule Name
  {dce78794-16a3-46fe-83b4-b4a01a62a96c}; !- Winter Design Day Schedule Name

OS:Schedule:Day,
  {d0462f03-f50c-44cc-89e4-a01efc9b45cb}, !- Handle
  Medium Office Lighting All Other Days Schedule, !- Name
  {f08f92b1-9c33-4528-90e2-a6e110c30052}, !- Schedule Type Limits Name
  ,                                       !- Interpolate to Timestep
  24,                                     !- Hour 1
  0,                                      !- Minute 1
  0.05;                                   !- Value Until Time 1

OS:Schedule:Day,
  {27275cf5-2120-4829-8730-3d4df341e7b4}, !- Handle
  Medium Office Lighting Summer Design Day Schedule, !- Name
  ,                                       !- Schedule Type Limits Name
  ,                                       !- Interpolate to Timestep
  6,                                      !- Hour 1
  0,                                      !- Minute 1
  1,                                      !- Value Until Time 1
  24,                                     !- Hour 2
  0,                                      !- Minute 2
  0;                                      !- Value Until Time 2

OS:Schedule:Day,
  {5782e49f-b8e0-4390-8dde-e2eaf84d0368}, !- Handle
  Medium Office Lighting Summer Design Day Schedule 1, !- Name
  {f08f92b1-9c33-4528-90e2-a6e110c30052}, !- Schedule Type Limits Name
  ,                                       !- Interpolate to Timestep
  6,                                      !- Hour 1
  0,                                      !- Minute 1
  1,                                      !- Value Until Time 1
  24,                                     !- Hour 2
  0,                                      !- Minute 2
  0;                                      !- Value Until Time 2

OS:Schedule:Day,
  {a821131c-6ede-45d4-9b54-6420aa59a885}, !- Handle
  Medium Office Lighting Winter Design Day Schedule, !- Name
  ,                                       !- Schedule Type Limits Name
  ,                                       !- Interpolate to Timestep
  24,                                     !- Hour 1
  0,                                      !- Minute 1
  0;                                      !- Value Until Time 1

OS:Schedule:Day,
  {dce78794-16a3-46fe-83b4-b4a01a62a96c}, !- Handle
  Medium Office Lighting Winter Design Day Schedule 1, !- Name
  {f08f92b1-9c33-4528-90e2-a6e110c30052}, !- Schedule Type Limits Name
  ,                                       !- Interpolate to Timestep
  24,                                     !- Hour 1
  0,                                      !- Minute 1
  0;                                      !- Value Until Time 1

OS:Schedule:Rule,
  {5c87d486-02c2-467a-9e2c-42cf1c8ac4ad}, !- Handle
  Medium Office Lighting Schedule Weekdays Rule, !- Name
  {840031d7-ce79-41b9-a87f-0b7cca5f1f48}, !- Schedule Ruleset Name
  1,                                      !- Rule Order
  {7f5c8119-062c-43a3-adbc-e4eb49bb2f05}, !- Day Schedule Name
  ,                                       !- Apply Sunday
  Yes,                                    !- Apply Monday
  Yes,                                    !- Apply Tuesday
  Yes,                                    !- Apply Wednesday
  Yes,                                    !- Apply Thursday
  Yes;                                    !- Apply Friday

OS:Schedule:Day,
  {7f5c8119-062c-43a3-adbc-e4eb49bb2f05}, !- Handle
  Medium Office Lighting Weekdays Schedule, !- Name
  {f08f92b1-9c33-4528-90e2-a6e110c30052}, !- Schedule Type Limits Name
  ,                                       !- Interpolate to Timestep
  5,                                      !- Hour 1
  0,                                      !- Minute 1
  0.05,                                   !- Value Until Time 1
  7,                                      !- Hour 2
  0,                                      !- Minute 2
  0.1,                                    !- Value Until Time 2
  8,                                      !- Hour 3
  0,                                      !- Minute 3
  0.3,                                    !- Value Until Time 3
  17,                                     !- Hour 4
  0,                                      !- Minute 4
  0.9,                                    !- Value Until Time 4
  18,                                     !- Hour 5
  0,                                      !- Minute 5
  0.7,                                    !- Value Until Time 5
  20,                                     !- Hour 6
  0,                                      !- Minute 6
  0.5,                                    !- Value Until Time 6
  22,                                     !- Hour 7
  0,                                      !- Minute 7
  0.3,                                    !- Value Until Time 7
  23,                                     !- Hour 8
  0,                                      !- Minute 8
  0.1,                                    !- Value Until Time 8
  24,                                     !- Hour 9
  0,                                      !- Minute 9
  0.05;                                   !- Value Until Time 9

OS:Schedule:Rule,
  {d113b87c-d251-446b-88fc-741822a06910}, !- Handle
  Medium Office Lighting Schedule Saturday Rule, !- Name
  {840031d7-ce79-41b9-a87f-0b7cca5f1f48}, !- Schedule Ruleset Name
  0,                                      !- Rule Order
  {20886468-7eeb-43a1-8a5d-701ecdf45ca7}, !- Day Schedule Name
  ,                                       !- Apply Sunday
  ,                                       !- Apply Monday
  ,                                       !- Apply Tuesday
  ,                                       !- Apply Wednesday
  ,                                       !- Apply Thursday
  ,                                       !- Apply Friday
  Yes;                                    !- Apply Saturday

OS:Schedule:Day,
  {20886468-7eeb-43a1-8a5d-701ecdf45ca7}, !- Handle
  Medium Office Lighting Saturday Schedule, !- Name
  {f08f92b1-9c33-4528-90e2-a6e110c30052}, !- Schedule Type Limits Name
  ,                                       !- Interpolate to Timestep
  6,                                      !- Hour 1
  0,                                      !- Minute 1
  0.05,                                   !- Value Until Time 1
  8,                                      !- Hour 2
  0,                                      !- Minute 2
  0.1,                                    !- Value Until Time 2
  14,                                     !- Hour 3
  0,                                      !- Minute 3
  0.5,                                    !- Value Until Time 3
  17,                                     !- Hour 4
  0,                                      !- Minute 4
  0.15,                                   !- Value Until Time 4
  24,                                     !- Hour 5
  0,                                      !- Minute 5
  0.05;                                   !- Value Until Time 5

OS:Schedule:Ruleset,
  {df23ac16-094c-4d85-9265-64293a0b2622}, !- Handle
  Medium Office Electric Equipment Schedule, !- Name
  {f08f92b1-9c33-4528-90e2-a6e110c30052}, !- Schedule Type Limits Name
  {6376c8c4-4cb1-443c-bfa9-727cb3c3526f}, !- Default Day Schedule Name
  {1765ea53-f7a0-4668-a0a2-e16225e49b1b}, !- Summer Design Day Schedule Name
  {fb55164b-9ba3-4997-a6da-bfa7332301f5}; !- Winter Design Day Schedule Name

OS:Schedule:Day,
  {6376c8c4-4cb1-443c-bfa9-727cb3c3526f}, !- Handle
  Medium Office Electric Equipment All Other Days Schedule, !- Name
  {f08f92b1-9c33-4528-90e2-a6e110c30052}, !- Schedule Type Limits Name
  ,                                       !- Interpolate to Timestep
  24,                                     !- Hour 1
  0,                                      !- Minute 1
  0.3;                                    !- Value Until Time 1

OS:Schedule:Day,
  {342bf0c4-1083-43cb-a33f-82615eb3e6a2}, !- Handle
  Medium Office Electric Equipment Summer Design Day Schedule, !- Name
  ,                                       !- Schedule Type Limits Name
  ,                                       !- Interpolate to Timestep
  6,                                      !- Hour 1
  0,                                      !- Minute 1
  1,                                      !- Value Until Time 1
  24,                                     !- Hour 2
  0,                                      !- Minute 2
  0;                                      !- Value Until Time 2

OS:Schedule:Day,
  {1765ea53-f7a0-4668-a0a2-e16225e49b1b}, !- Handle
  Medium Office Electric Equipment Summer Design Day Schedule 1, !- Name
  {f08f92b1-9c33-4528-90e2-a6e110c30052}, !- Schedule Type Limits Name
  ,                                       !- Interpolate to Timestep
  6,                                      !- Hour 1
  0,                                      !- Minute 1
  1,                                      !- Value Until Time 1
  24,                                     !- Hour 2
  0,                                      !- Minute 2
  0;                                      !- Value Until Time 2

OS:Schedule:Day,
  {edcda122-4163-4539-b2a2-7f82079fa7e1}, !- Handle
  Medium Office Electric Equipment Winter Design Day Schedule, !- Name
  ,                                       !- Schedule Type Limits Name
  ,                                       !- Interpolate to Timestep
  24,                                     !- Hour 1
  0,                                      !- Minute 1
  0;                                      !- Value Until Time 1

OS:Schedule:Day,
  {fb55164b-9ba3-4997-a6da-bfa7332301f5}, !- Handle
  Medium Office Electric Equipment Winter Design Day Schedule 1, !- Name
  {f08f92b1-9c33-4528-90e2-a6e110c30052}, !- Schedule Type Limits Name
  ,                                       !- Interpolate to Timestep
  24,                                     !- Hour 1
  0,                                      !- Minute 1
  0;                                      !- Value Until Time 1

OS:Schedule:Rule,
  {77859a4d-68e5-46ee-b398-9cec5a5761e3}, !- Handle
  Medium Office Electric Equipment Schedule Weekdays Rule, !- Name
  {df23ac16-094c-4d85-9265-64293a0b2622}, !- Schedule Ruleset Name
  1,                                      !- Rule Order
  {7d13b8c7-9ecb-4030-8f78-317955f28db6}, !- Day Schedule Name
  ,                                       !- Apply Sunday
  Yes,                                    !- Apply Monday
  Yes,                                    !- Apply Tuesday
  Yes,                                    !- Apply Wednesday
  Yes,                                    !- Apply Thursday
  Yes;                                    !- Apply Friday

OS:Schedule:Day,
  {7d13b8c7-9ecb-4030-8f78-317955f28db6}, !- Handle
  Medium Office Electric Equipment Weekdays Schedule, !- Name
  {f08f92b1-9c33-4528-90e2-a6e110c30052}, !- Schedule Type Limits Name
  ,                                       !- Interpolate to Timestep
  8,                                      !- Hour 1
  0,                                      !- Minute 1
  0.4,                                    !- Value Until Time 1
  12,                                     !- Hour 2
  0,                                      !- Minute 2
  0.9,                                    !- Value Until Time 2
  13,                                     !- Hour 3
  0,                                      !- Minute 3
  0.8,                                    !- Value Until Time 3
  17,                                     !- Hour 4
  0,                                      !- Minute 4
  0.9,                                    !- Value Until Time 4
  18,                                     !- Hour 5
  0,                                      !- Minute 5
  0.8,                                    !- Value Until Time 5
  20,                                     !- Hour 6