
OS:Version,
  {9200cccd-f719-4cf3-9dba-0f2a20883ae3}, !- Handle
  1.13.4;                                 !- Version Identifier

OS:SimulationControl,
  {3b06881b-1e6e-4930-b2b8-994968db11ea}, !- Handle
  Yes,                                    !- Do Zone Sizing Calculation
  Yes,                                    !- Do System Sizing Calculation
  ,                                       !- Do Plant Sizing Calculation
  No,                                     !- Run Simulation for Sizing Periods
  Yes;                                    !- Run Simulation for Weather File Run Periods

OS:Timestep,
  {55ecffa5-4c41-42a2-9382-c529d11458ab}, !- Handle
  6;                                      !- Number of Timesteps per Hour

OS:RunPeriod,
  {854091e0-6c2c-4cc2-bee6-2dd0dddac5dd}, !- Handle
  Run Period 1,                           !- Name
  1,                                      !- Begin Month
  1,                                      !- Begin Day of Month
  12,                                     !- End Month
  31,                                     !- End Day of Month
  No,                                     !- Use Weather File Holidays and Special Days
  No,                                     !- Use Weather File Daylight Saving Period
  No,                                     !- Apply Weekend Holiday Rule
  Yes,                                    !- Use Weather File Rain Indicators
  Yes,                                    !- Use Weather File Snow Indicators
  1;                                      !- Number of Times Runperiod to be Repeated

OS:SurfaceConvectionAlgorithm:Inside,
  {c91b247e-1387-4066-8bd9-7bb9981df156}, !- Handle
  TARP;                                   !- Algorithm

OS:SurfaceConvectionAlgorithm:Outside,
  {f0f02845-bfba-45e9-aa85-fccd1994cb55}, !- Handle
  DOE-2;                                  !- Algorithm

OS:HeatBalanceAlgorithm,
  {bd6033c4-66b2-41d6-9412-6a973aa9a551}, !- Handle
  ConductionTransferFunction,             !- Algorithm
  200;                                    !- Surface Temperature Upper Limit {C}

OS:ZoneAirHeatBalanceAlgorithm,
  {50e60003-1a29-4326-95c3-bfd2b84d420b}, !- Handle
  ThirdOrderBackwardDifference;           !- Algorithm

OS:ConvergenceLimits,
  {b9fc69ae-8ec9-452e-9254-500875a17fc2}, !- Handle
  1;                                      !- Minimum System Timestep {minutes}

OS:ShadowCalculation,
  {b6b1022c-0eca-4db1-b90e-cdbad275cd12}, !- Handle
  20,                                     !- Calculation Frequency
  15000;                                  !- Maximum Figures in Shadow Overlap Calculations

OS:Site,
  {822cc664-7e22-4c83-bfbc-248dd2895c6b}, !- Handle
  Site 1,                                 !- Name
  41.77,                                  !- Latitude {deg}
  -87.75,                                 !- Longitude {deg}
  -6,                                     !- Time Zone {hr}
  190,                                    !- Elevation {m}
  ;                                       !- Terrain

OS:Site:GroundTemperature:BuildingSurface,
  {4aaaa6d8-d4ed-45cc-b761-46b5665668b4}, !- Handle
  19.527,                                 !- January Ground Temperature {C}
  19.502,                                 !- February Ground Temperature {C}
  19.536,                                 !- March Ground Temperature {C}
  19.598,                                 !- April Ground Temperature {C}
  20.002,                                 !- May Ground Temperature {C}
  21.64,                                  !- June Ground Temperature {C}
  22.225,                                 !- July Ground Temperature {C}
  22.375,                                 !- August Ground Temperature {C}
  21.449,                                 !- September Ground Temperature {C}
  20.121,                                 !- October Ground Temperature {C}
  19.802,                                 !- November Ground Temperature {C}
  19.633;                                 !- December Ground Temperature {C}

OS:Site:GroundTemperature:Deep,
  {603597eb-5d8c-47e4-82d4-fbf8d151f11d}, !- Handle
  19.527,                                 !- January Deep Ground Temperature {C}
  19.502,                                 !- February Deep Ground Temperature {C}
  19.536,                                 !- March Deep Ground Temperature {C}
  19.598,                                 !- April Deep Ground Temperature {C}
  20.002,                                 !- May Deep Ground Temperature {C}
  21.64,                                  !- June Deep Ground Temperature {C}
  22.225,                                 !- July Deep Ground Temperature {C}
  22.375,                                 !- August Deep Ground Temperature {C}
  21.449,                                 !- September Deep Ground Temperature {C}
  20.121,                                 !- October Deep Ground Temperature {C}
  19.802,                                 !- November Deep Ground Temperature {C}
  19.633;                                 !- December Deep Ground Temperature {C}

OS:Site:WaterMainsTemperature,
  {628beb67-5d10-4cbf-b389-f97791ded535}, !- Handle
  Correlation,                            !- Calculation Method
  ,                                       !- Temperature Schedule Name
  9.69,                                   !- Annual Average Outdoor Air Temperature {C}
  28.1;                                   !- Maximum Difference In Monthly Average Outdoor Air Temperatures {deltaC}

OS:SizingPeriod:DesignDay,
  {efbded02-e5d2-4eee-9055-038a40905953}, !- Handle
  Sizing Period Design Day 1,             !- Name
  -20.6,                                  !- Maximum Dry-Bulb Temperature {C}
  0,                                      !- Daily Dry-Bulb Temperature Range {deltaC}
  -20.6,                                  !- Humidity Indicating Conditions at Maximum Dry-Bulb
  99063,                                  !- Barometric Pressure {Pa}
  4.9,                                    !- Wind Speed {m/s}
  270,                                    !- Wind Direction {deg}
  0,                                      !- Sky Clearness
  0,                                      !- Rain Indicator
  0,                                      !- Snow Indicator
  21,                                     !- Day of Month
  1,                                      !- Month
  WinterDesignDay,                        !- Day Type
  0,                                      !- Daylight Saving Time Indicator
  WetBulb,                                !- Humidity Indicating Type
  ,                                       !- Humidity Indicating Day Schedule Name
  DefaultMultipliers,                     !- Dry-Bulb Temperature Range Modifier Type
  ,                                       !- Dry-Bulb Temperature Range Modifier Schedule Name
  AshraeClearSky;                         !- Solar Model Indicator

OS:SizingPeriod:DesignDay,
  {1b544ed9-62f7-4a8e-b0e8-4bcf3381c5d3}, !- Handle
  Sizing Period Design Day 2,             !- Name
  33.2,                                   !- Maximum Dry-Bulb Temperature {C}
  10.7,                                   !- Daily Dry-Bulb Temperature Range {deltaC}
  23.8,                                   !- Humidity Indicating Conditions at Maximum Dry-Bulb
  99063,                                  !- Barometric Pressure {Pa}
  5.3,                                    !- Wind Speed {m/s}
  230,                                    !- Wind Direction {deg}
  1,                                      !- Sky Clearness
  0,                                      !- Rain Indicator
  0,                                      !- Snow Indicator
  21,                                     !- Day of Month
  7,                                      !- Month
  SummerDesignDay,                        !- Day Type
  0,                                      !- Daylight Saving Time Indicator
  WetBulb,                                !- Humidity Indicating Type
  ,                                       !- Humidity Indicating Day Schedule Name
  DefaultMultipliers,                     !- Dry-Bulb Temperature Range Modifier Type
  ,                                       !- Dry-Bulb Temperature Range Modifier Schedule Name
  AshraeClearSky;                         !- Solar Model Indicator

OS:ScheduleTypeLimits,
  {49ef75cd-a884-42dd-abc2-f5684a470148}, !- Handle
  Temperature,                            !- Name
  -60,                                    !- Lower Limit Value
  200,                                    !- Upper Limit Value
  CONTINUOUS,                             !- Numeric Type
  Temperature;                            !- Unit Type

OS:DefaultScheduleSet,
  {02616cc3-9c18-414e-954b-47f913073a6d}, !- Handle
  Default Schedules,                      !- Name
  ,                                       !- Hours of Operation Schedule Name
  {4eadded7-953b-41f8-a133-622bd178721d}, !- Number of People Schedule Name
  {918d0516-9f9f-402a-94ab-02f81d7578f4}, !- People Activity Level Schedule Name
  {ffd127fa-a3e4-4ae5-9fce-c7d767316bf1}, !- Lighting Schedule Name
  {49f4a75e-701e-4fb9-867b-84e90dcea964}, !- Electric Equipment Schedule Name
  {b63ea885-7662-4913-ae70-d60bb8b9cb68}, !- Gas Equipment Schedule Name
  {c995ba8f-b19b-45f7-a858-0006b8b956f3}, !- Hot Water Equipment Schedule Name
  {c395fa6d-2388-44f2-9cbb-cef1cb096169}, !- Infiltration Schedule Name
  ,                                       !- Steam Equipment Schedule Name
  ;                                       !- Other Equipment Schedule Name

OS:Schedule:Ruleset,
  {4eadded7-953b-41f8-a133-622bd178721d}, !- Handle
  Medium Office Number of People Schedule, !- Name
  {bc2e7d40-d1d7-4a4a-9f1d-813c9a936081}, !- Schedule Type Limits Name
  {bc9c5842-cf21-41b8-91b3-7472b9c0c075}, !- Default Day Schedule Name
  {89624c61-7f2f-49cc-9f40-ae86b0337510}; !- Summer Design Day Schedule Name

OS:Schedule:Day,
  {bc9c5842-cf21-41b8-91b3-7472b9c0c075}, !- Handle
  Medium Office Number of People All Other Days Schedule, !- Name
  {bc2e7d40-d1d7-4a4a-9f1d-813c9a936081}, !- Schedule Type Limits Name
  ,                                       !- Interpolate to Timestep
  24,                                     !- Hour 1
  0,                                      !- Minute 1
  0;                                      !- Value Until Time 1

OS:Schedule:Day,
  {4a65c907-7651-49b8-bee9-ea458c4979b0}, !- Handle
  Medium Office Number of People Summer Design Day Schedule, !- Name
  ,                                       !- Schedule Type Limits Name
  ,                                       !- Interpolate to Timestep
  6,                                      !- Hour 1
  0,                                      !- Minute 1
  0,                                      !- Value Until Time 1
  22,                                     !- Hour 2
  0,                                      !- Minute 2
  1,                                      !- Value Until Time 2
  24,                                     !- Hour 3
  0,                                      !- Minute 3
  0.05;                                   !- Value Until Time 3

OS:Schedule:Day,
  {89624c61-7f2f-49cc-9f40-ae86b0337510}, !- Handle
  Medium Office Number of People Summer Design Day Schedule 1, !- Name
  {bc2e7d40-d1d7-4a4a-9f1d-813c9a936081}, !- Schedule Type Limits Name
  ,                                       !- Interpolate to Timestep
  6,                                      !- Hour 1
  0,                                      !- Minute 1
  0,                                      !- Value Until Time 1
  22,                                     !- Hour 2
  0,                                      !- Minute 2
  1,                                      !- Value Until Time 2
  24,                                     !- Hour 3
  0,                                      !- Minute 3
  0.05;                                   !- Value Until Time 3

OS:Schedule:Rule,
  {834c46c1-98b2-4004-a0cf-0450fad99c8e}, !- Handle
  Medium Office Number of People Schedule Weekdays Rule, !- Name
  {4eadded7-953b-41f8-a133-622bd178721d}, !- Schedule Ruleset Name
  1,                                      !- Rule Order
  {adab8948-7be6-4733-812c-ef4a90fb27ff}, !- Day Schedule Name
  ,                                       !- Apply Sunday
  Yes,                                    !- Apply Monday
  Yes,                                    !- Apply Tuesday
  Yes,                                    !- Apply Wednesday
  Yes,                                    !- Apply Thursday
  Yes;                                    !- Apply Friday

OS:Schedule:Day,
  {adab8948-7be6-4733-812c-ef4a90fb27ff}, !- Handle
  Medium Office Number of People Weekdays Schedule, !- Name
  {bc2e7d40-d1d7-4a4a-9f1d-813c9a936081}, !- Schedule Type Limits Name
  ,                                       !- Interpolate to Timestep
  6,                                      !- Hour 1
  0,                                      !- Minute 1
  0,                                      !- Value Until Time 1
  7,                                      !- Hour 2
  0,                                      !- Minute 2
  0.1,                                    !- Value Until Time 2
  8,                                      !- Hour 3
  0,                                      !- Minute 3
  0.2,                                    !- Value Until Time 3
  12,                                     !- Hour 4
  0,                                      !- Minute 4
  0.95,                                   !- Value Until Time 4
  13,                                     !- Hour 5
  0,                                      !- Minute 5
  0.5,                                    !- Value Until Time 5
  17,                                     !- Hour 6
  0,                                      !- Minute 6
  0.95,                                   !- Value Until Time 6
  18,                                     !- Hour 7
  0,                                      !- Minute 7
  0.7,                                    !- Value Until Time 7
  20,                                     !- Hour 8
  0,                                      !- Minute 8
  0.4,                                    !- Value Until Time 8
  22,                                     !- Hour 9
  0,                                      !- Minute 9
  0.1,                                    !- Value Until Time 9
  24,                                     !- Hour 10
  0,                                      !- Minute 10
  0.05;                                   !- Value Until Time 10

OS:Schedule:Rule,
  {06df5eb9-a7a4-45d2-82d5-b0443a4a860c}, !- Handle
  Medium Office Number of People Schedule Saturday Rule, !- Name
  {4eadded7-953b-41f8-a133-622bd178721d}, !- Schedule Ruleset Name
  0,                                      !- Rule Order
  {83518ada-ce66-4d47-a0d7-56617a655e03}, !- Day Schedule Name
  ,                                       !- Apply Sunday
  ,                                       !- Apply Monday
  ,                                       !- Apply Tuesday
  ,                                       !- Apply Wednesday
  ,                                       !- Apply Thursday
  ,                                       !- Apply Friday
  Yes;                                    !- Apply Saturday

OS:Schedule:Day,
  {83518ada-ce66-4d47-a0d7-56617a655e03}, !- Handle
  Medium Office Number of People Saturday Schedule, !- Name
  {bc2e7d40-d1d7-4a4a-9f1d-813c9a936081}, !- Schedule Type Limits Name
  ,                                       !- Interpolate to Timestep
  6,                                      !- Hour 1
  0,                                      !- Minute 1
  0,                                      !- Value Until Time 1
  8,                                      !- Hour 2
  0,                                      !- Minute 2
  0.1,                                    !- Value Until Time 2
  14,                                     !- Hour 3
  0,                                      !- Minute 3
  0.5,                                    !- Value Until Time 3
  17,                                     !- Hour 4
  0,                                      !- Minute 4
  0.1,                                    !- Value Until Time 4
  24,                                     !- Hour 5
  0,                                      !- Minute 5
  0;                                      !- Value Until Time 5

OS:ScheduleTypeLimits,
  {bc2e7d40-d1d7-4a4a-9f1d-813c9a936081}, !- Handle
  Fractional,                             !- Name
  0,                                      !- Lower Limit Value
  1,                                      !- Upper Limit Value
  Continuous;                             !- Numeric Type

OS:Schedule:Ruleset,
  {918d0516-9f9f-402a-94ab-02f81d7578f4}, !- Handle
  Medium Office People Activity Level Schedule, !- Name
  {35faf902-2c6b-49d1-9232-8c30c2c79ce3}, !- Schedule Type Limits Name
  {1de4299d-6ef0-4b88-a471-a258b868c9a5}; !- Default Day Schedule Name

OS:Schedule:Day,
  {1de4299d-6ef0-4b88-a471-a258b868c9a5}, !- Handle
  Medium Office People Activity Level All Days Schedule, !- Name
  {35faf902-2c6b-49d1-9232-8c30c2c79ce3}, !- Schedule Type Limits Name
  ,                                       !- Interpolate to Timestep
  24,                                     !- Hour 1
  0,                                      !- Minute 1
  120;                                    !- Value Until Time 1

OS:ScheduleTypeLimits,
  {35faf902-2c6b-49d1-9232-8c30c2c79ce3}, !- Handle
  ActivityLevel,                          !- Name
  0,                                      !- Lower Limit Value
  ,                                       !- Upper Limit Value
  Continuous,                             !- Numeric Type
  ActivityLevel;                          !- Unit Type

OS:Schedule:Ruleset,
  {ffd127fa-a3e4-4ae5-9fce-c7d767316bf1}, !- Handle
  Medium Office Lighting Schedule,        !- Name
  {bc2e7d40-d1d7-4a4a-9f1d-813c9a936081}, !- Schedule Type Limits Name
  {f4a553fd-847e-4856-8254-a5f27706b1a6}, !- Default Day Schedule Name
  {0a61dfc5-6fa6-442c-9e8a-e3c152ba9f5a}, !- Summer Design Day Schedule Name
  {9ed9d9ef-2874-46bb-a9e8-a4d787d5e079}; !- Winter Design Day Schedule Name

OS:Schedule:Day,
  {f4a553fd-847e-4856-8254-a5f27706b1a6}, !- Handle
  Medium Office Lighting All Other Days Schedule, !- Name
  {bc2e7d40-d1d7-4a4a-9f1d-813c9a936081}, !- Schedule Type Limits Name
  ,                                       !- Interpolate to Timestep
  24,                                     !- Hour 1
  0,                                      !- Minute 1
  0.05;                                   !- Value Until Time 1

OS:Schedule:Day,
  {e66e6ddb-7a1f-438f-8650-288a1ff9d313}, !- Handle
  Medium Office Lighting Summer Design Day Schedule, !- Name
  ,                                       !- Schedule Type Limits Name
  ,                                       !- Interpolate to Timestep
  6,                                      !- Hour 1
  0,                                      !- Minute 1
  1,                                      !- Value Until Time 1
  24,                                     !- Hour 2
  0,                                      !- Minute 2
  0;                                      !- Value Until Time 2

OS:Schedule:Day,
  {0a61dfc5-6fa6-442c-9e8a-e3c152ba9f5a}, !- Handle
  Medium Office Lighting Summer Design Day Schedule 1, !- Name
  {bc2e7d40-d1d7-4a4a-9f1d-813c9a936081}, !- Schedule Type Limits Name
  ,                                       !- Interpolate to Timestep
  6,                                      !- Hour 1
  0,                                      !- Minute 1
  1,                                      !- Value Until Time 1
  24,                                     !- Hour 2
  0,                                      !- Minute 2
  0;                                      !- Value Until Time 2

OS:Schedule:Day,
  {e2464e1e-e975-431c-a941-2a21f5492e13}, !- Handle
  Medium Office Lighting Winter Design Day Schedule, !- Name
  ,                                       !- Schedule Type Limits Name
  ,                                       !- Interpolate to Timestep
  24,                                     !- Hour 1
  0,                                      !- Minute 1
  0;                                      !- Value Until Time 1

OS:Schedule:Day,
  {9ed9d9ef-2874-46bb-a9e8-a4d787d5e079}, !- Handle
  Medium Office Lighting Winter Design Day Schedule 1, !- Name
  {bc2e7d40-d1d7-4a4a-9f1d-813c9a936081}, !- Schedule Type Limits Name
  ,                                       !- Interpolate to Timestep
  24,                                     !- Hour 1
  0,                                      !- Minute 1
  0;                                      !- Value Until Time 1

OS:Schedule:Rule,
  {1e10abf4-5ed7-4e25-95fc-b9a310c34521}, !- Handle
  Medium Office Lighting Schedule Weekdays Rule, !- Name
  {ffd127fa-a3e4-4ae5-9fce-c7d767316bf1}, !- Schedule Ruleset Name
  1,                                      !- Rule Order
  {162dc20d-0ce2-4ee5-932e-3741488983c2}, !- Day Schedule Name
  ,                                       !- Apply Sunday
  Yes,                                    !- Apply Monday
  Yes,                                    !- Apply Tuesday
  Yes,                                    !- Apply Wednesday
  Yes,                                    !- Apply Thursday
  Yes;                                    !- Apply Friday

OS:Schedule:Day,
  {162dc20d-0ce2-4ee5-932e-3741488983c2}, !- Handle
  Medium Office Lighting Weekdays Schedule, !- Name
  {bc2e7d40-d1d7-4a4a-9f1d-813c9a936081}, !- Schedule Type Limits Name
  ,                                       !- Interpolate to Timestep
  5,                                      !- Hour 1
  0,                                      !- Minute 1
  0.05,                                   !- Value Until Time 1
  7,                                      !- Hour 2
  0,                                      !- Minute 2
  0.1,                                    !- Value Until Time 2
  8,                                      !- Hour 3
  0,                                      !- Minute 3
  0.3,                                    !- Value Until Time 3
  17,                                     !- Hour 4
  0,                                      !- Minute 4
  0.9,                                    !- Value Until Time 4
  18,                                     !- Hour 5
  0,                                      !- Minute 5
  0.7,                                    !- Value Until Time 5
  20,                                     !- Hour 6
  0,                                      !- Minute 6
  0.5,                                    !- Value Until Time 6
  22,                                     !- Hour 7
  0,                                      !- Minute 7
  0.3,                                    !- Value Until Time 7
  23,                                     !- Hour 8
  0,                                      !- Minute 8
  0.1,                                    !- Value Until Time 8
  24,                                     !- Hour 9
  0,                                      !- Minute 9
  0.05;                                   !- Value Until Time 9

OS:Schedule:Rule,
  {e737540b-606d-4e93-9be6-0ff9e4d8804b}, !- Handle
  Medium Office Lighting Schedule Saturday Rule, !- Name
  {ffd127fa-a3e4-4ae5-9fce-c7d767316bf1}, !- Schedule Ruleset Name
  0,                                      !- Rule Order
  {785b0060-189b-43ae-a908-fcd5a2d86be6}, !- Day Schedule Name
  ,                                       !- Apply Sunday
  ,                                       !- Apply Monday
  ,                                       !- Apply Tuesday
  ,                                       !- Apply Wednesday
  ,                                       !- Apply Thursday
  ,                                       !- Apply Friday
  Yes;                                    !- Apply Saturday

OS:Schedule:Day,
  {785b0060-189b-43ae-a908-fcd5a2d86be6}, !- Handle
  Medium Office Lighting Saturday Schedule, !- Name
  {bc2e7d40-d1d7-4a4a-9f1d-813c9a936081}, !- Schedule Type Limits Name
  ,                                       !- Interpolate to Timestep
  6,                                      !- Hour 1
  0,                                      !- Minute 1
  0.05,                                   !- Value Until Time 1
  8,                                      !- Hour 2
  0,                                      !- Minute 2
  0.1,                                    !- Value Until Time 2
  14,                                     !- Hour 3
  0,                                      !- Minute 3
  0.5,                                    !- Value Until Time 3
  17,                                     !- Hour 4
  0,                                      !- Minute 4
  0.15,                                   !- Value Until Time 4
  24,                                     !- Hour 5
  0,                                      !- Minute 5
  0.05;                                   !- Value Until Time 5

OS:Schedule:Ruleset,
  {49f4a75e-701e-4fb9-867b-84e90dcea964}, !- Handle
  Medium Office Electric Equipment Schedule, !- Name
  {bc2e7d40-d1d7-4a4a-9f1d-813c9a936081}, !- Schedule Type Limits Name
  {630f090a-b0af-451c-ad8a-95cac4de61c8}, !- Default Day Schedule Name
  {181c9b5a-ecb1-465c-ab74-a361b129b93b}, !- Summer Design Day Schedule Name
  {192905d2-d432-4b18-8483-de6462d90506}; !- Winter Design Day Schedule Name

OS:Schedule:Day,
  {630f090a-b0af-451c-ad8a-95cac4de61c8}, !- Handle
  Medium Office Electric Equipment All Other Days Schedule, !- Name
  {bc2e7d40-d1d7-4a4a-9f1d-813c9a936081}, !- Schedule Type Limits Name
  ,                                       !- Interpolate to Timestep
  24,                                     !- Hour 1
  0,                                      !- Minute 1
  0.3;                                    !- Value Until Time 1

OS:Schedule:Day,
  {04b4d170-1f06-4ca7-ba78-315d9bc8e1a2}, !- Handle
  Medium Office Electric Equipment Summer Design Day Schedule, !- Name
  ,                                       !- Schedule Type Limits Name
  ,                                       !- Interpolate to Timestep
  6,                                      !- Hour 1
  0,                                      !- Minute 1
  1,                                      !- Value Until Time 1
  24,                                     !- Hour 2
  0,                                      !- Minute 2
  0;                                      !- Value Until Time 2

OS:Schedule:Day,
  {181c9b5a-ecb1-465c-ab74-a361b129b93b}, !- Handle
  Medium Office Electric Equipment Summer Design Day Schedule 1, !- Name
  {bc2e7d40-d1d7-4a4a-9f1d-813c9a936081}, !- Schedule Type Limits Name
  ,                                       !- Interpolate to Timestep
  6,                                      !- Hour 1
  0,                                      !- Minute 1
  1,                                      !- Value Until Time 1
  24,                                     !- Hour 2
  0,                                      !- Minute 2
  0;                                      !- Value Until Time 2

OS:Schedule:Day,
  {aa435c85-1eb4-4938-a51e-f74104245f3a}, !- Handle
  Medium Office Electric Equipment Winter Design Day Schedule, !- Name
  ,                                       !- Schedule Type Limits Name
  ,                                       !- Interpolate to Timestep
  24,                                     !- Hour 1
  0,                                      !- Minute 1
  0;                                      !- Value Until Time 1

OS:Schedule:Day,
  {192905d2-d432-4b18-8483-de6462d90506}, !- Handle
  Medium Office Electric Equipment Winter Design Day Schedule 1, !- Name
  {bc2e7d40-d1d7-4a4a-9f1d-813c9a936081}, !- Schedule Type Limits Name
  ,                                       !- Interpolate to Timestep
  24,                                     !- Hour 1
  0,                                      !- Minute 1
  0;                                      !- Value Until Time 1

OS:Schedule:Rule,
  {d0f0f900-b198-4593-a16e-5bf0c3f16f3e}, !- Handle
  Medium Office Electric Equipment Schedule Weekdays Rule, !- Name
  {49f4a75e-701e-4fb9-867b-84e90dcea964}, !- Schedule Ruleset Name
  1,                                      !- Rule Order
  {eb31a3e1-4d88-4504-9bcb-0905300312a5}, !- Day Schedule Name
  ,                                       !- Apply Sunday
  Yes,                                    !- Apply Monday
  Yes,                                    !- Apply Tuesday
  Yes,                                    !- Apply Wednesday
  Yes,                                    !- Apply Thursday
  Yes;                                    !- Apply Friday

OS:Schedule:Day,
  {eb31a3e1-4d88-4504-9bcb-0905300312a5}, !- Handle
  Medium Office Electric Equipment Weekdays Schedule, !- Name
  {bc2e7d40-d1d7-4a4a-9f1d-813c9a936081}, !- Schedule Type Limits Name
  ,                                       !- Interpolate to Timestep
  8,                                      !- Hour 1
  0,                                      !- Minute 1
  0.4,                                    !- Value Until Time 1
  12,                                     !- Hour 2
  0,                                      !- Minute 2
  0.9,                                    !- Value Until Time 2
  13,                                     !- Hour 3
  0,                                      !- Minute 3
  0.8,                                    !- Value Until Time 3
  17,                                     !- Hour 4
  0,                                      !- Minute 4
  0.9,                                    !- Value Until Time 4
  18,                                     !- Hour 5
  0,                                      !- Minute 5
  0.8,                                    !- Value Until Time 5
  20,                                     !- Hour 6