
OS:Version,
  {75ff9f1f-ece2-46da-bd23-0f8e93b40bef}, !- Handle
  1.5.4;                                  !- Version Identifier

OS:SimulationControl,
  {83cac907-cda4-48f3-b4b6-c27bb74c9824}, !- Handle
  Yes,                                    !- Do Zone Sizing Calculation
  Yes,                                    !- Do System Sizing Calculation
  ,                                       !- Do Plant Sizing Calculation
  No,                                     !- Run Simulation for Sizing Periods
  Yes;                                    !- Run Simulation for Weather File Run Periods

OS:Timestep,
  {8e049257-4f33-499e-970a-36018bcf6a38}, !- Handle
  6;                                      !- Number of Timesteps per Hour

OS:RunPeriod,
  {5ccc56d0-c9c2-4b17-a05b-bc39e2af06d1}, !- Handle
  Run Period 1,                           !- Name
  1,                                      !- Begin Month
  1,                                      !- Begin Day of Month
  12,                                     !- End Month
  31,                                     !- End Day of Month
  No,                                     !- Use Weather File Holidays and Special Days
  No,                                     !- Use Weather File Daylight Saving Period
  No,                                     !- Apply Weekend Holiday Rule
  Yes,                                    !- Use Weather File Rain Indicators
  Yes,                                    !- Use Weather File Snow Indicators
  1;                                      !- Number of Times Runperiod to be Repeated

OS:SurfaceConvectionAlgorithm:Inside,
  {b9fb74b5-5606-457e-b03c-18d949e9f0a0}, !- Handle
  TARP;                                   !- Algorithm

OS:SurfaceConvectionAlgorithm:Outside,
  {47cac53b-27bc-4e8f-a488-2f617becd6b1}, !- Handle
  DOE-2;                                  !- Algorithm

OS:HeatBalanceAlgorithm,
  {8aa2452b-806a-4fbd-bf6f-bbfec47c0e02}, !- Handle
  ConductionTransferFunction,             !- Algorithm
  200;                                    !- Surface Temperature Upper Limit {F}

OS:ZoneAirHeatBalanceAlgorithm,
  {5bda5c77-4321-4a2f-acde-4ef701ddd80e}, !- Handle
  AnalyticalSolution;                     !- Algorithm

OS:ConvergenceLimits,
  {6d9f5416-0655-4a05-9264-e30d64e3015c}; !- Handle

OS:ShadowCalculation,
  {aeb50b36-3f11-4670-94cd-fbbcb0e65a14}, !- Handle
  7,                                      !- Calculation Frequency
  15000;                                  !- Maximum Figures in Shadow Overlap Calculations

OS:Site,
  {b7b42864-25ad-4554-a47a-75dd6b3bca3c}, !- Handle
  Site 1,                                 !- Name
  41.77,                                  !- Latitude {deg}
  -87.75,                                 !- Longitude {deg}
  -6,                                     !- Time Zone {hr}
  190,                                    !- Elevation {m}
  ;                                       !- Terrain

OS:Site:GroundTemperature:BuildingSurface,
  {c629fef7-f43e-45b0-8bdc-0b5a39c0e9e5}, !- Handle
  19.527,                                 !- January Ground Temperature {C}
  19.502,                                 !- February Ground Temperature {C}
  19.536,                                 !- March Ground Temperature {C}
  19.598,                                 !- April Ground Temperature {C}
  20.002,                                 !- May Ground Temperature {C}
  21.64,                                  !- June Ground Temperature {C}
  22.225,                                 !- July Ground Temperature {C}
  22.375,                                 !- August Ground Temperature {C}
  21.449,                                 !- September Ground Temperature {C}
  20.121,                                 !- October Ground Temperature {C}
  19.802,                                 !- November Ground Temperature {C}
  19.633;                                 !- December Ground Temperature {C}

OS:Site:WaterMainsTemperature,
  {c985dded-dec5-4203-add3-80faa6495fb2}, !- Handle
  Correlation,                            !- Calculation Method
  ,                                       !- Temperature Schedule Name
  9.69,                                   !- Annual Average Outdoor Air Temperature {C}
  28.1;                                   !- Maximum Difference In Monthly Average Outdoor Air Temperatures {deltaC}

OS:SizingPeriod:DesignDay,
  {5e987360-2734-4269-8dcc-b14d504689b8}, !- Handle
  Sizing Period Design Day 1,             !- Name
  -20.6,                                  !- Maximum Dry-Bulb Temperature {C}
  0,                                      !- Daily Dry-Bulb Temperature Range {deltaC}
  -20.6,                                  !- Humidity Indicating Conditions at Maximum Dry-Bulb {BasedOnField A3}
  99063,                                  !- Barometric Pressure {Pa}
  4.9,                                    !- Wind Speed {m/s}
  270,                                    !- Wind Direction {deg}
  0,                                      !- Sky Clearness
  0,                                      !- Rain Indicator
  0,                                      !- Snow Indicator
  21,                                     !- Day of Month
  1,                                      !- Month
  WinterDesignDay,                        !- Day Type
  0,                                      !- Daylight Saving Time Indicator
  WetBulb,                                !- Humidity Indicating Type
  ,                                       !- Humidity Indicating Day Schedule Name
  DefaultMultipliers,                     !- Dry-Bulb Temperature Range Modifier Type
  ,                                       !- Dry-Bulb Temperature Range Modifier Schedule Name
  AshraeClearSky;                         !- Solar Model Indicator

OS:SizingPeriod:DesignDay,
  {96c01c82-b11d-43e5-8ba0-e983ab3565d0}, !- Handle
  Sizing Period Design Day 2,             !- Name
  33.2,                                   !- Maximum Dry-Bulb Temperature {C}
  10.7,                                   !- Daily Dry-Bulb Temperature Range {deltaC}
  23.8,                                   !- Humidity Indicating Conditions at Maximum Dry-Bulb {BasedOnField A3}
  99063,                                  !- Barometric Pressure {Pa}
  5.3,                                    !- Wind Speed {m/s}
  230,                                    !- Wind Direction {deg}
  1,                                      !- Sky Clearness
  0,                                      !- Rain Indicator
  0,                                      !- Snow Indicator
  21,                                     !- Day of Month
  7,                                      !- Month
  SummerDesignDay,                        !- Day Type
  0,                                      !- Daylight Saving Time Indicator
  WetBulb,                                !- Humidity Indicating Type
  ,                                       !- Humidity Indicating Day Schedule Name
  DefaultMultipliers,                     !- Dry-Bulb Temperature Range Modifier Type
  ,                                       !- Dry-Bulb Temperature Range Modifier Schedule Name
  AshraeClearSky;                         !- Solar Model Indicator

OS:ScheduleTypeLimits,
  {baab3786-51c7-43db-8c16-4b2dc02a5dd8}, !- Handle
  Temperature,                            !- Name
  -60,                                    !- Lower Limit Value {BasedOnField A4}
  200,                                    !- Upper Limit Value {BasedOnField A4}
  CONTINUOUS,                             !- Numeric Type
  Temperature;                            !- Unit Type

OS:DefaultScheduleSet,
  {5a329b9a-d588-4707-9f0b-543591401082}, !- Handle
  Default Schedules,                      !- Name
  ,                                       !- Hours of Operation Schedule Name
  {24e1860a-83d0-4b75-aab8-8cbeaf41fcb8}, !- Number of People Schedule Name
  {fbcf53b7-6fdf-4ff1-a756-4e75f7bf919c}, !- People Activity Level Schedule Name
  {536cda7c-44a0-4179-9d24-95f0d673062b}, !- Lighting Schedule Name
  {d6638161-ebc0-4b45-b4cc-0405a040c633}, !- Electric Equipment Schedule Name
  {d4bd695f-58d8-4222-849a-397ee246f9ce}, !- Gas Equipment Schedule Name
  {c8ab3281-f48f-4259-a89d-35d971976e41}, !- Hot Water Equipment Schedule Name
  {ae08b16d-7506-4b3d-9544-9f8a8daef3cd}, !- Infiltration Schedule Name
  ,                                       !- Steam Equipment Schedule Name
  ;                                       !- Other Equipment Schedule Name

OS:Schedule:Ruleset,
  {24e1860a-83d0-4b75-aab8-8cbeaf41fcb8}, !- Handle
  Medium Office Number of People Schedule, !- Name
  {a8ce05e8-1003-4189-be50-9aff357ffb1c}, !- Schedule Type Limits Name
  {564c5775-cdab-44c0-88be-7390651dc676}, !- Default Day Schedule Name
  {12910a9a-0c65-4f85-8c66-d297b0bdf03f}; !- Summer Design Day Schedule Name

OS:Schedule:Day,
  {564c5775-cdab-44c0-88be-7390651dc676}, !- Handle
  Medium Office Number of People All Other Days Schedule, !- Name
  {a8ce05e8-1003-4189-be50-9aff357ffb1c}, !- Schedule Type Limits Name
  ,                                       !- Interpolate to Timestep
  24,                                     !- Hour 1
  0,                                      !- Minute 1
  0;                                      !- Value Until Time 1

OS:Schedule:Day,
  {65760564-85f8-4d33-9af8-cdb3d3494037}, !- Handle
  Medium Office Number of People Summer Design Day Schedule, !- Name
  ,                                       !- Schedule Type Limits Name
  ,                                       !- Interpolate to Timestep
  6,                                      !- Hour 1
  0,                                      !- Minute 1
  0,                                      !- Value Until Time 1
  22,                                     !- Hour 2
  0,                                      !- Minute 2
  1,                                      !- Value Until Time 2
  24,                                     !- Hour 3
  0,                                      !- Minute 3
  0.05;                                   !- Value Until Time 3

OS:Schedule:Day,
  {12910a9a-0c65-4f85-8c66-d297b0bdf03f}, !- Handle
  Medium Office Number of People Summer Design Day Schedule 1, !- Name
  {a8ce05e8-1003-4189-be50-9aff357ffb1c}, !- Schedule Type Limits Name
  ,                                       !- Interpolate to Timestep
  6,                                      !- Hour 1
  0,                                      !- Minute 1
  0,                                      !- Value Until Time 1
  22,                                     !- Hour 2
  0,                                      !- Minute 2
  1,                                      !- Value Until Time 2
  24,                                     !- Hour 3
  0,                                      !- Minute 3
  0.05;                                   !- Value Until Time 3

OS:Schedule:Rule,
  {213a2e0f-a34c-466f-a8da-0b1267e9e770}, !- Handle
  Medium Office Number of People Schedule Weekdays Rule, !- Name
  {24e1860a-83d0-4b75-aab8-8cbeaf41fcb8}, !- Schedule Ruleset Name
  1,                                      !- Rule Order
  {c61cc668-5f36-4bc3-9fe6-d71c1dad6851}, !- Day Schedule Name
  ,                                       !- Apply Sunday
  Yes,                                    !- Apply Monday
  Yes,                                    !- Apply Tuesday
  Yes,                                    !- Apply Wednesday
  Yes,                                    !- Apply Thursday
  Yes;                                    !- Apply Friday

OS:Schedule:Day,
  {c61cc668-5f36-4bc3-9fe6-d71c1dad6851}, !- Handle
  Medium Office Number of People Weekdays Schedule, !- Name
  {a8ce05e8-1003-4189-be50-9aff357ffb1c}, !- Schedule Type Limits Name
  ,                                       !- Interpolate to Timestep
  6,                                      !- Hour 1
  0,                                      !- Minute 1
  0,                                      !- Value Until Time 1
  7,                                      !- Hour 2
  0,                                      !- Minute 2
  0.1,                                    !- Value Until Time 2
  8,                                      !- Hour 3
  0,                                      !- Minute 3
  0.2,                                    !- Value Until Time 3
  12,                                     !- Hour 4
  0,                                      !- Minute 4
  0.95,                                   !- Value Until Time 4
  13,                                     !- Hour 5
  0,                                      !- Minute 5
  0.5,                                    !- Value Until Time 5
  17,                                     !- Hour 6
  0,                                      !- Minute 6
  0.95,                                   !- Value Until Time 6
  18,                                     !- Hour 7
  0,                                      !- Minute 7
  0.7,                                    !- Value Until Time 7
  20,                                     !- Hour 8
  0,                                      !- Minute 8
  0.4,                                    !- Value Until Time 8
  22,                                     !- Hour 9
  0,                                      !- Minute 9
  0.1,                                    !- Value Until Time 9
  24,                                     !- Hour 10
  0,                                      !- Minute 10
  0.05;                                   !- Value Until Time 10

OS:Schedule:Rule,
  {af4069a6-f176-4d42-96f1-4f5319ff56b0}, !- Handle
  Medium Office Number of People Schedule Saturday Rule, !- Name
  {24e1860a-83d0-4b75-aab8-8cbeaf41fcb8}, !- Schedule Ruleset Name
  0,                                      !- Rule Order
  {825a60c7-bbf1-40ca-b396-7b76d6856d0a}, !- Day Schedule Name
  ,                                       !- Apply Sunday
  ,                                       !- Apply Monday
  ,                                       !- Apply Tuesday
  ,                                       !- Apply Wednesday
  ,                                       !- Apply Thursday
  ,                                       !- Apply Friday
  Yes;                                    !- Apply Saturday

OS:Schedule:Day,
  {825a60c7-bbf1-40ca-b396-7b76d6856d0a}, !- Handle
  Medium Office Number of People Saturday Schedule, !- Name
  {a8ce05e8-1003-4189-be50-9aff357ffb1c}, !- Schedule Type Limits Name
  ,                                       !- Interpolate to Timestep
  6,                                      !- Hour 1
  0,                                      !- Minute 1
  0,                                      !- Value Until Time 1
  8,                                      !- Hour 2
  0,                                      !- Minute 2
  0.1,                                    !- Value Until Time 2
  14,                                     !- Hour 3
  0,                                      !- Minute 3
  0.5,                                    !- Value Until Time 3
  17,                                     !- Hour 4
  0,                                      !- Minute 4
  0.1,                                    !- Value Until Time 4
  24,                                     !- Hour 5
  0,                                      !- Minute 5
  0;                                      !- Value Until Time 5

OS:ScheduleTypeLimits,
  {a8ce05e8-1003-4189-be50-9aff357ffb1c}, !- Handle
  Fractional,                             !- Name
  0,                                      !- Lower Limit Value {BasedOnField A4}
  1,                                      !- Upper Limit Value {BasedOnField A4}
  Continuous;                             !- Numeric Type

OS:Schedule:Ruleset,
  {fbcf53b7-6fdf-4ff1-a756-4e75f7bf919c}, !- Handle
  Medium Office People Activity Level Schedule, !- Name
  {5f09fc8d-a33b-4e9f-b652-02dd7726fbcd}, !- Schedule Type Limits Name
  {ea49f364-aa3c-4252-91c3-9b7b7bea66fa}; !- Default Day Schedule Name

OS:Schedule:Day,
  {ea49f364-aa3c-4252-91c3-9b7b7bea66fa}, !- Handle
  Medium Office People Activity Level All Days Schedule, !- Name
  {5f09fc8d-a33b-4e9f-b652-02dd7726fbcd}, !- Schedule Type Limits Name
  ,                                       !- Interpolate to Timestep
  24,                                     !- Hour 1
  0,                                      !- Minute 1
  120;                                    !- Value Until Time 1

OS:ScheduleTypeLimits,
  {5f09fc8d-a33b-4e9f-b652-02dd7726fbcd}, !- Handle
  ActivityLevel,                          !- Name
  0,                                      !- Lower Limit Value {BasedOnField A4}
  ,                                       !- Upper Limit Value {BasedOnField A4}
  Continuous,                             !- Numeric Type
  ActivityLevel;                          !- Unit Type

OS:Schedule:Ruleset,
  {536cda7c-44a0-4179-9d24-95f0d673062b}, !- Handle
  Medium Office Lighting Schedule,        !- Name
  {a8ce05e8-1003-4189-be50-9aff357ffb1c}, !- Schedule Type Limits Name
  {6ecb3521-200f-40d1-b05a-ef38e23ee0be}, !- Default Day Schedule Name
  {b70b58dd-77ab-4404-9c65-af5f3f95823f}, !- Summer Design Day Schedule Name
  {2336f530-7d20-4d28-a534-0d7faa928453}; !- Winter Design Day Schedule Name

OS:Schedule:Day,
  {6ecb3521-200f-40d1-b05a-ef38e23ee0be}, !- Handle
  Medium Office Lighting All Other Days Schedule, !- Name
  {a8ce05e8-1003-4189-be50-9aff357ffb1c}, !- Schedule Type Limits Name
  ,                                       !- Interpolate to Timestep
  24,                                     !- Hour 1
  0,                                      !- Minute 1
  0.05;                                   !- Value Until Time 1

OS:Schedule:Day,
  {56d479f1-3229-448a-97af-406fc1834884}, !- Handle
  Medium Office Lighting Summer Design Day Schedule, !- Name
  ,                                       !- Schedule Type Limits Name
  ,                                       !- Interpolate to Timestep
  6,                                      !- Hour 1
  0,                                      !- Minute 1
  1,                                      !- Value Until Time 1
  24,                                     !- Hour 2
  0,                                      !- Minute 2
  0;                                      !- Value Until Time 2

OS:Schedule:Day,
  {b70b58dd-77ab-4404-9c65-af5f3f95823f}, !- Handle
  Medium Office Lighting Summer Design Day Schedule 1, !- Name
  {a8ce05e8-1003-4189-be50-9aff357ffb1c}, !- Schedule Type Limits Name
  ,                                       !- Interpolate to Timestep
  6,                                      !- Hour 1
  0,                                      !- Minute 1
  1,                                      !- Value Until Time 1
  24,                                     !- Hour 2
  0,                                      !- Minute 2
  0;                                      !- Value Until Time 2

OS:Schedule:Day,
  {fb8d5ab8-db1a-4568-94ab-950129883609}, !- Handle
  Medium Office Lighting Winter Design Day Schedule, !- Name
  ,                                       !- Schedule Type Limits Name
  ,                                       !- Interpolate to Timestep
  24,                                     !- Hour 1
  0,                                      !- Minute 1
  0;                                      !- Value Until Time 1

OS:Schedule:Day,
  {2336f530-7d20-4d28-a534-0d7faa928453}, !- Handle
  Medium Office Lighting Winter Design Day Schedule 1, !- Name
  {a8ce05e8-1003-4189-be50-9aff357ffb1c}, !- Schedule Type Limits Name
  ,                                       !- Interpolate to Timestep
  24,                                     !- Hour 1
  0,                                      !- Minute 1
  0;                                      !- Value Until Time 1

OS:Schedule:Rule,
  {3a1fb24d-008a-464b-acf6-82a97007c08f}, !- Handle
  Medium Office Lighting Schedule Weekdays Rule, !- Name
  {536cda7c-44a0-4179-9d24-95f0d673062b}, !- Schedule Ruleset Name
  1,                                      !- Rule Order
  {41479442-7288-48a2-998d-961b3f2e266a}, !- Day Schedule Name
  ,                                       !- Apply Sunday
  Yes,                                    !- Apply Monday
  Yes,                                    !- Apply Tuesday
  Yes,                                    !- Apply Wednesday
  Yes,                                    !- Apply Thursday
  Yes;                                    !- Apply Friday

OS:Schedule:Day,
  {41479442-7288-48a2-998d-961b3f2e266a}, !- Handle
  Medium Office Lighting Weekdays Schedule, !- Name
  {a8ce05e8-1003-4189-be50-9aff357ffb1c}, !- Schedule Type Limits Name
  ,                                       !- Interpolate to Timestep
  5,                                      !- Hour 1
  0,                                      !- Minute 1
  0.05,                                   !- Value Until Time 1
  7,                                      !- Hour 2
  0,                                      !- Minute 2
  0.1,                                    !- Value Until Time 2
  8,                                      !- Hour 3
  0,                                      !- Minute 3
  0.3,                                    !- Value Until Time 3
  17,                                     !- Hour 4
  0,                                      !- Minute 4
  0.9,                                    !- Value Until Time 4
  18,                                     !- Hour 5
  0,                                      !- Minute 5
  0.7,                                    !- Value Until Time 5
  20,                                     !- Hour 6
  0,                                      !- Minute 6
  0.5,                                    !- Value Until Time 6
  22,                                     !- Hour 7
  0,                                      !- Minute 7
  0.3,                                    !- Value Until Time 7
  23,                                     !- Hour 8
  0,                                      !- Minute 8
  0.1,                                    !- Value Until Time 8
  24,                                     !- Hour 9
  0,                                      !- Minute 9
  0.05;                                   !- Value Until Time 9

OS:Schedule:Rule,
  {e579d07d-a364-41ee-ade8-64b8cbbc735e}, !- Handle
  Medium Office Lighting Schedule Saturday Rule, !- Name
  {536cda7c-44a0-4179-9d24-95f0d673062b}, !- Schedule Ruleset Name
  0,                                      !- Rule Order
  {aeb48d30-dc2e-4c1e-8552-404c482ff2ca}, !- Day Schedule Name
  ,                                       !- Apply Sunday
  ,                                       !- Apply Monday
  ,                                       !- Apply Tuesday
  ,                                       !- Apply Wednesday
  ,                                       !- Apply Thursday
  ,                                       !- Apply Friday
  Yes;                                    !- Apply Saturday

OS:Schedule:Day,
  {aeb48d30-dc2e-4c1e-8552-404c482ff2ca}, !- Handle
  Medium Office Lighting Saturday Schedule, !- Name
  {a8ce05e8-1003-4189-be50-9aff357ffb1c}, !- Schedule Type Limits Name
  ,                                       !- Interpolate to Timestep
  6,                                      !- Hour 1
  0,                                      !- Minute 1
  0.05,                                   !- Value Until Time 1
  8,                                      !- Hour 2
  0,                                      !- Minute 2
  0.1,                                    !- Value Until Time 2
  14,                                     !- Hour 3
  0,                                      !- Minute 3
  0.5,                                    !- Value Until Time 3
  17,                                     !- Hour 4
  0,                                      !- Minute 4
  0.15,                                   !- Value Until Time 4
  24,                                     !- Hour 5
  0,                                      !- Minute 5
  0.05;                                   !- Value Until Time 5

OS:Schedule:Ruleset,
  {d6638161-ebc0-4b45-b4cc-0405a040c633}, !- Handle
  Medium Office Electric Equipment Schedule, !- Name
  {a8ce05e8-1003-4189-be50-9aff357ffb1c}, !- Schedule Type Limits Name
  {fed6d1d6-6d98-4780-929e-fc0ac2d94c33}, !- Default Day Schedule Name
  {f8633374-7e26-4d67-8c6b-dd4f0a0b229b}, !- Summer Design Day Schedule Name
  {f53d8368-1d96-43ad-b8b3-db52ddc9475f}; !- Winter Design Day Schedule Name

OS:Schedule:Day,
  {fed6d1d6-6d98-4780-929e-fc0ac2d94c33}, !- Handle
  Medium Office Electric Equipment All Other Days Schedule, !- Name
  {a8ce05e8-1003-4189-be50-9aff357ffb1c}, !- Schedule Type Limits Name
  ,                                       !- Interpolate to Timestep
  24,                                     !- Hour 1
  0,                                      !- Minute 1
  0.3;                                    !- Value Until Time 1

OS:Schedule:Day,
  {b9d7cf54-070e-49ec-9ef8-3c6b5190a5d4}, !- Handle
  Medium Office Electric Equipment Summer Design Day Schedule, !- Name
  ,                                       !- Schedule Type Limits Name
  ,                                       !- Interpolate to Timestep
  6,                                      !- Hour 1
  0,                                      !- Minute 1
  1,                                      !- Value Until Time 1
  24,                                     !- Hour 2
  0,                                      !- Minute 2
  0;                                      !- Value Until Time 2

OS:Schedule:Day,
  {f8633374-7e26-4d67-8c6b-dd4f0a0b229b}, !- Handle
  Medium Office Electric Equipment Summer Design Day Schedule 1, !- Name
  {a8ce05e8-1003-4189-be50-9aff357ffb1c}, !- Schedule Type Limits Name
  ,                                       !- Interpolate to Timestep
  6,                                      !- Hour 1
  0,                                      !- Minute 1
  1,                                      !- Value Until Time 1
  24,                                     !- Hour 2
  0,                                      !- Minute 2
  0;                                      !- Value Until Time 2

OS:Schedule:Day,
  {a90346d2-1acb-4ec7-ab75-4e1d852698de}, !- Handle
  Medium Office Electric Equipment Winter Design Day Schedule, !- Name
  ,                                       !- Schedule Type Limits Name
  ,                                       !- Interpolate to Timestep
  24,                                     !- Hour 1
  0,                                      !- Minute 1
  0;                                      !- Value Until Time 1

OS:Schedule:Day,
  {f53d8368-1d96-43ad-b8b3-db52ddc9475f}, !- Handle
  Medium Office Electric Equipment Winter Design Day Schedule 1, !- Name
  {a8ce05e8-1003-4189-be50-9aff357ffb1c}, !- Schedule Type Limits Name
  ,                                       !- Interpolate to Timestep
  24,                                     !- Hour 1
  0,                                      !- Minute 1
  0;                                      !- Value Until Time 1

OS:Schedule:Rule,
  {31ee1d2f-b4d8-4b4b-a6b7-e16123642105}, !- Handle
  Medium Office Electric Equipment Schedule Weekdays Rule, !- Name
  {d6638161-ebc0-4b45-b4cc-0405a040c633}, !- Schedule Ruleset Name
  1,                                      !- Rule Order
  {ea845b54-6ceb-4d10-8a54-06b28f297f83}, !- Day Schedule Name
  ,                                       !- Apply Sunday
  Yes,                                    !- Apply Monday
  Yes,                                    !- Apply Tuesday
  Yes,                                    !- Apply Wednesday
  Yes,                                    !- Apply Thursday
  Yes;                                    !- Apply Friday

OS:Schedule:Day,
  {ea845b54-6ceb-4d10-8a54-06b28f297f83}, !- Handle
  Medium Office Electric Equipment Weekdays Schedule, !- Name
  {a8ce05e8-1003-4189-be50-9aff357ffb1c}, !- Schedule Type Limits Name
  ,                                       !- Interpolate to Timestep
  8,                                      !- Hour 1
  0,                                      !- Minute 1
  0.4,                                    !- Value Until Time 1
  12,                                     !- Hour 2
  0,                                      !- Minute 2
  0.9,                                    !- Value Until Time 2
  13,                                     !- Hour 3
  0,                                      !- Minute 3
  0.8,                                    !- Value Until Time 3
  17,                                     !- Hour 4
  0,                                      !- Minute 4
  0.9,                                    !- Value Until Time 4
  18,                                     !- Hour 5
  0,                                      !- Minute 5
  0.8,                                    !- Value Until Time 5
  20,                                     !- Hour 6
  0,                                      !- Minute 6
  0.6,                                    !- Value Until Time 6
  22,                                     !- Hour 7
  0,                                      !- Minute 7
  0.5,                                    !- Value Until Time 7
  24,                                     !- Hour 8
  0,                                      !- Minute 8
  0.4;                                    !- Value Until Time 8

OS:Schedule:Rule,
  {7f4b8cdc-6368-49de-9ae6-30fc65200920}, !- Handle
  Medium Office Electric Equipment Schedule Saturday Rule, !- Name
  {d6638161-ebc0-4b45-b4cc-0405a040c633}, !- Schedule Ruleset Name
  0,                                      !- Rule Order
  {1debce13-ba2e-4316-b9e6-fc75608aba55}, !- Day Schedule Name
  ,                                       !- Apply Sunday
  ,                                       !- Apply Monday
  ,                                       !- Apply Tuesday
  ,                                       !- Apply Wednesday