
OS:Version,
  {68b6a8fd-19c3-4a48-bac3-7c12923cb02d}, !- Handle
  1.8.2;                                  !- Version Identifier

OS:SimulationControl,
  {39f3edac-d0bb-4841-9deb-e45ca7a39641}, !- Handle
  Yes,                                    !- Do Zone Sizing Calculation
  Yes,                                    !- Do System Sizing Calculation
  ,                                       !- Do Plant Sizing Calculation
  No,                                     !- Run Simulation for Sizing Periods
  Yes;                                    !- Run Simulation for Weather File Run Periods

OS:Timestep,
  {90a7c703-be12-4c71-90b7-311680c23182}, !- Handle
  6;                                      !- Number of Timesteps per Hour

OS:RunPeriod,
  {617c6825-1d64-4c44-bafd-30214af50cc8}, !- Handle
  Run Period 1,                           !- Name
  1,                                      !- Begin Month
  1,                                      !- Begin Day of Month
  12,                                     !- End Month
  31,                                     !- End Day of Month
  No,                                     !- Use Weather File Holidays and Special Days
  No,                                     !- Use Weather File Daylight Saving Period
  No,                                     !- Apply Weekend Holiday Rule
  Yes,                                    !- Use Weather File Rain Indicators
  Yes,                                    !- Use Weather File Snow Indicators
  1;                                      !- Number of Times Runperiod to be Repeated

OS:SurfaceConvectionAlgorithm:Inside,
  {794169cc-4c0f-4582-bc87-fb5d3cd9c85b}, !- Handle
  TARP;                                   !- Algorithm

OS:SurfaceConvectionAlgorithm:Outside,
  {94284d07-1539-4225-8779-6b82239bc9a0}, !- Handle
  DOE-2;                                  !- Algorithm

OS:HeatBalanceAlgorithm,
  {343fe9e7-147b-45a6-a486-e8762051e429}, !- Handle
  ConductionTransferFunction,             !- Algorithm
  200;                                    !- Surface Temperature Upper Limit {F}

OS:ZoneAirHeatBalanceAlgorithm,
  {fd265fb1-4607-4f8e-8d38-ac1eb3aa782b}, !- Handle
  AnalyticalSolution;                     !- Algorithm

OS:ConvergenceLimits,
  {abadae2e-2bd2-4129-b15a-82be9c029246}; !- Handle

OS:ShadowCalculation,
  {b1cbb0db-8f19-40ec-8d31-1a806987fcb7}, !- Handle
  7,                                      !- Calculation Frequency
  15000;                                  !- Maximum Figures in Shadow Overlap Calculations

OS:Site,
  {362e60ed-4fb0-467c-9f30-399c81193b25}, !- Handle
  Site 1,                                 !- Name
  41.77,                                  !- Latitude {deg}
  -87.75,                                 !- Longitude {deg}
  -6,                                     !- Time Zone {hr}
  190,                                    !- Elevation {m}
  ;                                       !- Terrain

OS:Site:GroundTemperature:BuildingSurface,
  {ca8aa5d9-d4d0-4fa2-9c6b-02ecee92820a}, !- Handle
  19.527,                                 !- January Ground Temperature {C}
  19.502,                                 !- February Ground Temperature {C}
  19.536,                                 !- March Ground Temperature {C}
  19.598,                                 !- April Ground Temperature {C}
  20.002,                                 !- May Ground Temperature {C}
  21.64,                                  !- June Ground Temperature {C}
  22.225,                                 !- July Ground Temperature {C}
  22.375,                                 !- August Ground Temperature {C}
  21.449,                                 !- September Ground Temperature {C}
  20.121,                                 !- October Ground Temperature {C}
  19.802,                                 !- November Ground Temperature {C}
  19.633;                                 !- December Ground Temperature {C}

OS:Site:WaterMainsTemperature,
  {b839a463-fdae-48b1-bf66-1f4522cf1068}, !- Handle
  Correlation,                            !- Calculation Method
  ,                                       !- Temperature Schedule Name
  9.69,                                   !- Annual Average Outdoor Air Temperature {C}
  28.1;                                   !- Maximum Difference In Monthly Average Outdoor Air Temperatures {deltaC}

OS:SizingPeriod:DesignDay,
  {afc6dcc9-267b-45cc-ae16-3d635bdb1225}, !- Handle
  Sizing Period Design Day 1,             !- Name
  -20.6,                                  !- Maximum Dry-Bulb Temperature {C}
  0,                                      !- Daily Dry-Bulb Temperature Range {deltaC}
  -20.6,                                  !- Humidity Indicating Conditions at Maximum Dry-Bulb {BasedOnField A3}
  99063,                                  !- Barometric Pressure {Pa}
  4.9,                                    !- Wind Speed {m/s}
  270,                                    !- Wind Direction {deg}
  0,                                      !- Sky Clearness
  0,                                      !- Rain Indicator
  0,                                      !- Snow Indicator
  21,                                     !- Day of Month
  1,                                      !- Month
  WinterDesignDay,                        !- Day Type
  0,                                      !- Daylight Saving Time Indicator
  WetBulb,                                !- Humidity Indicating Type
  ,                                       !- Humidity Indicating Day Schedule Name
  DefaultMultipliers,                     !- Dry-Bulb Temperature Range Modifier Type
  ,                                       !- Dry-Bulb Temperature Range Modifier Schedule Name
  AshraeClearSky;                         !- Solar Model Indicator

OS:SizingPeriod:DesignDay,
  {42702732-69a7-47b9-a5e6-4d053faf3746}, !- Handle
  Sizing Period Design Day 2,             !- Name
  33.2,                                   !- Maximum Dry-Bulb Temperature {C}
  10.7,                                   !- Daily Dry-Bulb Temperature Range {deltaC}
  23.8,                                   !- Humidity Indicating Conditions at Maximum Dry-Bulb {BasedOnField A3}
  99063,                                  !- Barometric Pressure {Pa}
  5.3,                                    !- Wind Speed {m/s}
  230,                                    !- Wind Direction {deg}
  1,                                      !- Sky Clearness
  0,                                      !- Rain Indicator
  0,                                      !- Snow Indicator
  21,                                     !- Day of Month
  7,                                      !- Month
  SummerDesignDay,                        !- Day Type
  0,                                      !- Daylight Saving Time Indicator
  WetBulb,                                !- Humidity Indicating Type
  ,                                       !- Humidity Indicating Day Schedule Name
  DefaultMultipliers,                     !- Dry-Bulb Temperature Range Modifier Type
  ,                                       !- Dry-Bulb Temperature Range Modifier Schedule Name
  AshraeClearSky;                         !- Solar Model Indicator

OS:ScheduleTypeLimits,
  {634ad7c1-426a-4b66-b287-61d4b9955d4a}, !- Handle
  Temperature,                            !- Name
  -60,                                    !- Lower Limit Value {BasedOnField A4}
  200,                                    !- Upper Limit Value {BasedOnField A4}
  CONTINUOUS,                             !- Numeric Type
  Temperature;                            !- Unit Type

OS:DefaultScheduleSet,
  {25941f01-b4f4-4cd7-8654-4bfeb7b19ffc}, !- Handle
  Default Schedules,                      !- Name
  ,                                       !- Hours of Operation Schedule Name
  {4e6b3fe7-b0f5-437e-8308-e2f01d5b5d84}, !- Number of People Schedule Name
  {73c6cb99-3d91-488b-9e33-7e6ed57d1a1d}, !- People Activity Level Schedule Name
  {37a7953a-6e12-4d69-a67e-30a88e4fd01d}, !- Lighting Schedule Name
  {4cfa15bd-d3f1-426a-939d-f2c9c0efa29c}, !- Electric Equipment Schedule Name
  {7828021c-7ec0-451f-96c7-15a774d79ed2}, !- Gas Equipment Schedule Name
  {0ce58913-0800-4e4a-bae5-571996481703}, !- Hot Water Equipment Schedule Name
  {02ccb415-c96d-4744-8acd-833797c516e0}, !- Infiltration Schedule Name
  ,                                       !- Steam Equipment Schedule Name
  ;                                       !- Other Equipment Schedule Name

OS:Schedule:Ruleset,
  {4e6b3fe7-b0f5-437e-8308-e2f01d5b5d84}, !- Handle
  Medium Office Number of People Schedule, !- Name
  {4bd3dbe8-5fbc-40d3-a784-21750e202a74}, !- Schedule Type Limits Name
  {6b83ecb7-c248-4023-afe2-9b052eddf61a}, !- Default Day Schedule Name
  {04b8eea8-5ca2-484c-bcf8-cb92c681e06b}; !- Summer Design Day Schedule Name

OS:Schedule:Day,
  {6b83ecb7-c248-4023-afe2-9b052eddf61a}, !- Handle
  Medium Office Number of People All Other Days Schedule, !- Name
  {4bd3dbe8-5fbc-40d3-a784-21750e202a74}, !- Schedule Type Limits Name
  ,                                       !- Interpolate to Timestep
  24,                                     !- Hour 1
  0,                                      !- Minute 1
  0;                                      !- Value Until Time 1

OS:Schedule:Day,
  {e9d01b36-0e69-4ce5-91d7-8d1badbab9a6}, !- Handle
  Medium Office Number of People Summer Design Day Schedule, !- Name
  ,                                       !- Schedule Type Limits Name
  ,                                       !- Interpolate to Timestep
  6,                                      !- Hour 1
  0,                                      !- Minute 1
  0,                                      !- Value Until Time 1
  22,                                     !- Hour 2
  0,                                      !- Minute 2
  1,                                      !- Value Until Time 2
  24,                                     !- Hour 3
  0,                                      !- Minute 3
  0.05;                                   !- Value Until Time 3

OS:Schedule:Day,
  {04b8eea8-5ca2-484c-bcf8-cb92c681e06b}, !- Handle
  Medium Office Number of People Summer Design Day Schedule 1, !- Name
  {4bd3dbe8-5fbc-40d3-a784-21750e202a74}, !- Schedule Type Limits Name
  ,                                       !- Interpolate to Timestep
  6,                                      !- Hour 1
  0,                                      !- Minute 1
  0,                                      !- Value Until Time 1
  22,                                     !- Hour 2
  0,                                      !- Minute 2
  1,                                      !- Value Until Time 2
  24,                                     !- Hour 3
  0,                                      !- Minute 3
  0.05;                                   !- Value Until Time 3

OS:Schedule:Rule,
  {c808103b-9378-4379-89d5-d81be1c4c782}, !- Handle
  Medium Office Number of People Schedule Weekdays Rule, !- Name
  {4e6b3fe7-b0f5-437e-8308-e2f01d5b5d84}, !- Schedule Ruleset Name
  1,                                      !- Rule Order
  {6f9b7a9e-c7ae-4487-9a2f-a4d0c1a0e6ba}, !- Day Schedule Name
  ,                                       !- Apply Sunday
  Yes,                                    !- Apply Monday
  Yes,                                    !- Apply Tuesday
  Yes,                                    !- Apply Wednesday
  Yes,                                    !- Apply Thursday
  Yes;                                    !- Apply Friday

OS:Schedule:Day,
  {6f9b7a9e-c7ae-4487-9a2f-a4d0c1a0e6ba}, !- Handle
  Medium Office Number of People Weekdays Schedule, !- Name
  {4bd3dbe8-5fbc-40d3-a784-21750e202a74}, !- Schedule Type Limits Name
  ,                                       !- Interpolate to Timestep
  6,                                      !- Hour 1
  0,                                      !- Minute 1
  0,                                      !- Value Until Time 1
  7,                                      !- Hour 2
  0,                                      !- Minute 2
  0.1,                                    !- Value Until Time 2
  8,                                      !- Hour 3
  0,                                      !- Minute 3
  0.2,                                    !- Value Until Time 3
  12,                                     !- Hour 4
  0,                                      !- Minute 4
  0.95,                                   !- Value Until Time 4
  13,                                     !- Hour 5
  0,                                      !- Minute 5
  0.5,                                    !- Value Until Time 5
  17,                                     !- Hour 6
  0,                                      !- Minute 6
  0.95,                                   !- Value Until Time 6
  18,                                     !- Hour 7
  0,                                      !- Minute 7
  0.7,                                    !- Value Until Time 7
  20,                                     !- Hour 8
  0,                                      !- Minute 8
  0.4,                                    !- Value Until Time 8
  22,                                     !- Hour 9
  0,                                      !- Minute 9
  0.1,                                    !- Value Until Time 9
  24,                                     !- Hour 10
  0,                                      !- Minute 10
  0.05;                                   !- Value Until Time 10

OS:Schedule:Rule,
  {e4b00605-9d78-4b50-9757-d11633861839}, !- Handle
  Medium Office Number of People Schedule Saturday Rule, !- Name
  {4e6b3fe7-b0f5-437e-8308-e2f01d5b5d84}, !- Schedule Ruleset Name
  0,                                      !- Rule Order
  {24126863-8063-4351-a766-0b2dddb60d84}, !- Day Schedule Name
  ,                                       !- Apply Sunday
  ,                                       !- Apply Monday
  ,                                       !- Apply Tuesday
  ,                                       !- Apply Wednesday
  ,                                       !- Apply Thursday
  ,                                       !- Apply Friday
  Yes;                                    !- Apply Saturday

OS:Schedule:Day,
  {24126863-8063-4351-a766-0b2dddb60d84}, !- Handle
  Medium Office Number of People Saturday Schedule, !- Name
  {4bd3dbe8-5fbc-40d3-a784-21750e202a74}, !- Schedule Type Limits Name
  ,                                       !- Interpolate to Timestep
  6,                                      !- Hour 1
  0,                                      !- Minute 1
  0,                                      !- Value Until Time 1
  8,                                      !- Hour 2
  0,                                      !- Minute 2
  0.1,                                    !- Value Until Time 2
  14,                                     !- Hour 3
  0,                                      !- Minute 3
  0.5,                                    !- Value Until Time 3
  17,                                     !- Hour 4
  0,                                      !- Minute 4
  0.1,                                    !- Value Until Time 4
  24,                                     !- Hour 5
  0,                                      !- Minute 5
  0;                                      !- Value Until Time 5

OS:ScheduleTypeLimits,
  {4bd3dbe8-5fbc-40d3-a784-21750e202a74}, !- Handle
  Fractional,                             !- Name
  0,                                      !- Lower Limit Value {BasedOnField A4}
  1,                                      !- Upper Limit Value {BasedOnField A4}
  Continuous;                             !- Numeric Type

OS:Schedule:Ruleset,
  {73c6cb99-3d91-488b-9e33-7e6ed57d1a1d}, !- Handle
  Medium Office People Activity Level Schedule, !- Name
  {aba27ee6-151b-4e89-a0a6-eee1abbb9c0b}, !- Schedule Type Limits Name
  {3f4b6b5c-c112-4484-9656-569c8783afc0}; !- Default Day Schedule Name

OS:Schedule:Day,
  {3f4b6b5c-c112-4484-9656-569c8783afc0}, !- Handle
  Medium Office People Activity Level All Days Schedule, !- Name
  {aba27ee6-151b-4e89-a0a6-eee1abbb9c0b}, !- Schedule Type Limits Name
  ,                                       !- Interpolate to Timestep
  24,                                     !- Hour 1
  0,                                      !- Minute 1
  120;                                    !- Value Until Time 1

OS:ScheduleTypeLimits,
  {aba27ee6-151b-4e89-a0a6-eee1abbb9c0b}, !- Handle
  ActivityLevel,                          !- Name
  0,                                      !- Lower Limit Value {BasedOnField A4}
  ,                                       !- Upper Limit Value {BasedOnField A4}
  Continuous,                             !- Numeric Type
  ActivityLevel;                          !- Unit Type

OS:Schedule:Ruleset,
  {37a7953a-6e12-4d69-a67e-30a88e4fd01d}, !- Handle
  Medium Office Lighting Schedule,        !- Name
  {4bd3dbe8-5fbc-40d3-a784-21750e202a74}, !- Schedule Type Limits Name
  {34b5df61-ea82-412d-9605-70a7b481b8e4}, !- Default Day Schedule Name
  {1210370c-b932-40d7-8170-1e79970b7c0f}, !- Summer Design Day Schedule Name
  {5ba6fc4f-e3bf-4ac6-89d6-e687273ad695}; !- Winter Design Day Schedule Name

OS:Schedule:Day,
  {34b5df61-ea82-412d-9605-70a7b481b8e4}, !- Handle
  Medium Office Lighting All Other Days Schedule, !- Name
  {4bd3dbe8-5fbc-40d3-a784-21750e202a74}, !- Schedule Type Limits Name
  ,                                       !- Interpolate to Timestep
  24,                                     !- Hour 1
  0,                                      !- Minute 1
  0.05;                                   !- Value Until Time 1

OS:Schedule:Day,
  {499ada2a-3038-44c5-a0b1-47d19bebd109}, !- Handle
  Medium Office Lighting Summer Design Day Schedule, !- Name
  ,                                       !- Schedule Type Limits Name
  ,                                       !- Interpolate to Timestep
  6,                                      !- Hour 1
  0,                                      !- Minute 1
  1,                                      !- Value Until Time 1
  24,                                     !- Hour 2
  0,                                      !- Minute 2
  0;                                      !- Value Until Time 2

OS:Schedule:Day,
  {1210370c-b932-40d7-8170-1e79970b7c0f}, !- Handle
  Medium Office Lighting Summer Design Day Schedule 1, !- Name
  {4bd3dbe8-5fbc-40d3-a784-21750e202a74}, !- Schedule Type Limits Name
  ,                                       !- Interpolate to Timestep
  6,                                      !- Hour 1
  0,                                      !- Minute 1
  1,                                      !- Value Until Time 1
  24,                                     !- Hour 2
  0,                                      !- Minute 2
  0;                                      !- Value Until Time 2

OS:Schedule:Day,
  {a31f8146-86d0-4f71-9a29-1c3f84094bea}, !- Handle
  Medium Office Lighting Winter Design Day Schedule, !- Name
  ,                                       !- Schedule Type Limits Name
  ,                                       !- Interpolate to Timestep
  24,                                     !- Hour 1
  0,                                      !- Minute 1
  0;                                      !- Value Until Time 1

OS:Schedule:Day,
  {5ba6fc4f-e3bf-4ac6-89d6-e687273ad695}, !- Handle
  Medium Office Lighting Winter Design Day Schedule 1, !- Name
  {4bd3dbe8-5fbc-40d3-a784-21750e202a74}, !- Schedule Type Limits Name
  ,                                       !- Interpolate to Timestep
  24,                                     !- Hour 1
  0,                                      !- Minute 1
  0;                                      !- Value Until Time 1

OS:Schedule:Rule,
  {461e8de2-188a-4e70-a60c-2c5554f9e25a}, !- Handle
  Medium Office Lighting Schedule Weekdays Rule, !- Name
  {37a7953a-6e12-4d69-a67e-30a88e4fd01d}, !- Schedule Ruleset Name
  1,                                      !- Rule Order
  {1d453393-69e0-4110-974e-775ecee8339b}, !- Day Schedule Name
  ,                                       !- Apply Sunday
  Yes,                                    !- Apply Monday
  Yes,                                    !- Apply Tuesday
  Yes,                                    !- Apply Wednesday
  Yes,                                    !- Apply Thursday
  Yes;                                    !- Apply Friday

OS:Schedule:Day,
  {1d453393-69e0-4110-974e-775ecee8339b}, !- Handle
  Medium Office Lighting Weekdays Schedule, !- Name
  {4bd3dbe8-5fbc-40d3-a784-21750e202a74}, !- Schedule Type Limits Name
  ,                                       !- Interpolate to Timestep
  5,                                      !- Hour 1
  0,                                      !- Minute 1
  0.05,                                   !- Value Until Time 1
  7,                                      !- Hour 2
  0,                                      !- Minute 2
  0.1,                                    !- Value Until Time 2
  8,                                      !- Hour 3
  0,                                      !- Minute 3
  0.3,                                    !- Value Until Time 3
  17,                                     !- Hour 4
  0,                                      !- Minute 4
  0.9,                                    !- Value Until Time 4
  18,                                     !- Hour 5
  0,                                      !- Minute 5
  0.7,                                    !- Value Until Time 5
  20,                                     !- Hour 6
  0,                                      !- Minute 6
  0.5,                                    !- Value Until Time 6
  22,                                     !- Hour 7
  0,                                      !- Minute 7
  0.3,                                    !- Value Until Time 7
  23,                                     !- Hour 8
  0,                                      !- Minute 8
  0.1,                                    !- Value Until Time 8
  24,                                     !- Hour 9
  0,                                      !- Minute 9
  0.05;                                   !- Value Until Time 9

OS:Schedule:Rule,
  {29e49b76-11ca-4ef6-9cc4-0672a2828973}, !- Handle
  Medium Office Lighting Schedule Saturday Rule, !- Name
  {37a7953a-6e12-4d69-a67e-30a88e4fd01d}, !- Schedule Ruleset Name
  0,                                      !- Rule Order
  {1706d2c0-0627-4132-919b-7e144525a0f3}, !- Day Schedule Name
  ,                                       !- Apply Sunday
  ,                                       !- Apply Monday
  ,                                       !- Apply Tuesday
  ,                                       !- Apply Wednesday
  ,                                       !- Apply Thursday
  ,                                       !- Apply Friday
  Yes;                                    !- Apply Saturday

OS:Schedule:Day,
  {1706d2c0-0627-4132-919b-7e144525a0f3}, !- Handle
  Medium Office Lighting Saturday Schedule, !- Name
  {4bd3dbe8-5fbc-40d3-a784-21750e202a74}, !- Schedule Type Limits Name
  ,                                       !- Interpolate to Timestep
  6,                                      !- Hour 1
  0,                                      !- Minute 1
  0.05,                                   !- Value Until Time 1
  8,                                      !- Hour 2
  0,                                      !- Minute 2
  0.1,                                    !- Value Until Time 2
  14,                                     !- Hour 3
  0,                                      !- Minute 3
  0.5,                                    !- Value Until Time 3
  17,                                     !- Hour 4
  0,                                      !- Minute 4
  0.15,                                   !- Value Until Time 4
  24,                                     !- Hour 5
  0,                                      !- Minute 5
  0.05;                                   !- Value Until Time 5

OS:Schedule:Ruleset,
  {4cfa15bd-d3f1-426a-939d-f2c9c0efa29c}, !- Handle
  Medium Office Electric Equipment Schedule, !- Name
  {4bd3dbe8-5fbc-40d3-a784-21750e202a74}, !- Schedule Type Limits Name
  {c52a286e-f9c7-4cd0-888e-896f654a7644}, !- Default Day Schedule Name
  {491a2c4f-ea0e-43ad-b860-d04e1a958d12}, !- Summer Design Day Schedule Name
  {6e8b6f7b-0a8e-4a24-9b62-ca2506de1e74}; !- Winter Design Day Schedule Name

OS:Schedule:Day,
  {c52a286e-f9c7-4cd0-888e-896f654a7644}, !- Handle
  Medium Office Electric Equipment All Other Days Schedule, !- Name
  {4bd3dbe8-5fbc-40d3-a784-21750e202a74}, !- Schedule Type Limits Name
  ,                                       !- Interpolate to Timestep
  24,                                     !- Hour 1
  0,                                      !- Minute 1
  0.3;                                    !- Value Until Time 1

OS:Schedule:Day,
  {aac66d05-f0e2-4730-aec3-ce3ca937cd5d}, !- Handle
  Medium Office Electric Equipment Summer Design Day Schedule, !- Name
  ,                                       !- Schedule Type Limits Name
  ,                                       !- Interpolate to Timestep
  6,                                      !- Hour 1
  0,                                      !- Minute 1
  1,                                      !- Value Until Time 1
  24,                                     !- Hour 2
  0,                                      !- Minute 2
  0;                                      !- Value Until Time 2

OS:Schedule:Day,
  {491a2c4f-ea0e-43ad-b860-d04e1a958d12}, !- Handle
  Medium Office Electric Equipment Summer Design Day Schedule 1, !- Name
  {4bd3dbe8-5fbc-40d3-a784-21750e202a74}, !- Schedule Type Limits Name
  ,                                       !- Interpolate to Timestep
  6,                                      !- Hour 1
  0,                                      !- Minute 1
  1,                                      !- Value Until Time 1
  24,                                     !- Hour 2
  0,                                      !- Minute 2
  0;                                      !- Value Until Time 2

OS:Schedule:Day,
  {1c182ee6-0233-4eaa-a608-e7422916fe52}, !- Handle
  Medium Office Electric Equipment Winter Design Day Schedule, !- Name
  ,                                       !- Schedule Type Limits Name
  ,                                       !- Interpolate to Timestep
  24,                                     !- Hour 1
  0,                                      !- Minute 1
  0;                                      !- Value Until Time 1

OS:Schedule:Day,
  {6e8b6f7b-0a8e-4a24-9b62-ca2506de1e74}, !- Handle
  Medium Office Electric Equipment Winter Design Day Schedule 1, !- Name
  {4bd3dbe8-5fbc-40d3-a784-21750e202a74}, !- Schedule Type Limits Name
  ,                                       !- Interpolate to Timestep
  24,                                     !- Hour 1
  0,                                      !- Minute 1
  0;                                      !- Value Until Time 1

OS:Schedule:Rule,
  {ecaba9d7-4291-421b-b9b1-1dbce4d757e1}, !- Handle
  Medium Office Electric Equipment Schedule Weekdays Rule, !- Name
  {4cfa15bd-d3f1-426a-939d-f2c9c0efa29c}, !- Schedule Ruleset Name
  1,                                      !- Rule Order
  {3f82f311-b0ad-414e-a406-a5affd86e7a2}, !- Day Schedule Name
  ,                                       !- Apply Sunday
  Yes,                                    !- Apply Monday
  Yes,                                    !- Apply Tuesday
  Yes,                                    !- Apply Wednesday
  Yes,                                    !- Apply Thursday
  Yes;                                    !- Apply Friday

OS:Schedule:Day,
  {3f82f311-b0ad-414e-a406-a5affd86e7a2}, !- Handle
  Medium Office Electric Equipment Weekdays Schedule, !- Name
  {4bd3dbe8-5fbc-40d3-a784-21750e202a74}, !- Schedule Type Limits Name
  ,                                       !- Interpolate to Timestep
  8,                                      !- Hour 1
  0,                                      !- Minute 1
  0.4,                                    !- Value Until Time 1
  12,                                     !- Hour 2
  0,                                      !- Minute 2
  0.9,                                    !- Value Until Time 2
  13,                                     !- Hour 3
  0,                                      !- Minute 3
  0.8,                                    !- Value Until Time 3
  17,                                     !- Hour 4
  0,                                      !- Minute 4
  0.9,                                    !- Value Until Time 4
  18,                                     !- Hour 5
  0,                                      !- Minute 5
  0.8,                                    !- Value Until Time 5
  20,                                     !- Hour 6
  0,                                      !- Minute 6
  0.6,                                    !- Value Until Time 6
  22,                                     !- Hour 7
  0,                                      !- Minute 7
  0.5,                                    !- Value Until Time 7
  24,                                     !- Hour 8
  0,                                      !- Minute 8
  0.4;                                    !- Value Until Time 8

OS:Schedule:Rule,
  {7edc6272-5821-48c6-b43e-d8f2dc8136c6}, !- Handle
  Medium Office Electric Equipment Schedule Saturday Rule, !- Name
  {4cfa15bd-d3f1-426a-939d-f2c9c0efa29c}, !- Schedule Ruleset Name
  0,                                      !- Rule Order
  {6c4ac0c3-4577-40af-8f79-66ce43790539}, !- Day Schedule Name
  ,                                       !- Apply Sunday
  ,                                       !- Apply Monday
  ,                                       !- Apply Tuesday
  ,                                       !- Apply Wednesday