
OS:Version,
  {cc017186-89e3-4f19-81e7-c8261dcdb460}, !- Handle
  1.0.5;                                  !- Version Identifier

OS:SimulationControl,
  {c16bb220-b50d-4135-8127-febf1f9ff137}, !- Handle
  Yes,                                    !- Do Zone Sizing Calculation
  Yes,                                    !- Do System Sizing Calculation
  ,                                       !- Do Plant Sizing Calculation
  No,                                     !- Run Simulation for Sizing Periods
  Yes;                                    !- Run Simulation for Weather File Run Periods

OS:Timestep,
  {8ff29b39-55fa-48be-9226-b1195769322b}, !- Handle
  6;                                      !- Number of Timesteps per Hour

OS:RunPeriod,
  {8c309c24-ecc7-415e-af56-2c9b6308d46d}, !- Handle
  Run Period 1,                           !- Name
  1,                                      !- Begin Month
  1,                                      !- Begin Day of Month
  12,                                     !- End Month
  31,                                     !- End Day of Month
  No,                                     !- Use Weather File Holidays and Special Days
  No,                                     !- Use Weather File Daylight Saving Period
  No,                                     !- Apply Weekend Holiday Rule
  Yes,                                    !- Use Weather File Rain Indicators
  Yes,                                    !- Use Weather File Snow Indicators
  1;                                      !- Number of Times Runperiod to be Repeated

OS:SurfaceConvectionAlgorithm:Inside,
  {d9373168-e92a-47af-8d11-94e020e398b0}, !- Handle
  TARP;                                   !- Algorithm

OS:SurfaceConvectionAlgorithm:Outside,
  {eb75d75b-5c3b-46e0-bacc-b73906707369}, !- Handle
  DOE-2;                                  !- Algorithm

OS:HeatBalanceAlgorithm,
  {9bc15e2a-0fcf-41c3-ae31-43465f21e296}, !- Handle
  ConductionTransferFunction,             !- Algorithm
  200;                                    !- Surface Temperature Upper Limit {F}

OS:ZoneAirHeatBalanceAlgorithm,
  {f83f6058-27d4-409d-993c-5afd59e0b1ff}, !- Handle
  AnalyticalSolution;                     !- Algorithm

OS:ConvergenceLimits,
  {1e1e25dc-8c7b-46d8-9299-5f64c7873bfa}; !- Handle

OS:ShadowCalculation,
  {f55e691a-2e75-4cde-9867-2a204d1ade73}, !- Handle
  7,                                      !- Calculation Frequency
  15000;                                  !- Maximum Figures in Shadow Overlap Calculations

OS:Site,
  {4e1be1d5-5dea-4392-8405-0f6392ec8dfd}, !- Handle
  Site 1,                                 !- Name
  41.77,                                  !- Latitude {deg}
  -87.75,                                 !- Longitude {deg}
  -6,                                     !- Time Zone {hr}
  190,                                    !- Elevation {m}
  ;                                       !- Terrain

OS:Site:GroundTemperature:BuildingSurface,
  {b24ff2ee-2e78-45d3-a5a5-ead153857933}, !- Handle
  19.527,                                 !- January Ground Temperature {C}
  19.502,                                 !- February Ground Temperature {C}
  19.536,                                 !- March Ground Temperature {C}
  19.598,                                 !- April Ground Temperature {C}
  20.002,                                 !- May Ground Temperature {C}
  21.64,                                  !- June Ground Temperature {C}
  22.225,                                 !- July Ground Temperature {C}
  22.375,                                 !- August Ground Temperature {C}
  21.449,                                 !- September Ground Temperature {C}
  20.121,                                 !- October Ground Temperature {C}
  19.802,                                 !- November Ground Temperature {C}
  19.633;                                 !- December Ground Temperature {C}

OS:Site:WaterMainsTemperature,
  {36150e42-e238-4a8c-89dc-e0355468ee4c}, !- Handle
  Correlation,                            !- Calculation Method
  ,                                       !- Temperature Schedule Name
  9.69,                                   !- Annual Average Outdoor Air Temperature {C}
  28.1;                                   !- Maximum Difference In Monthly Average Outdoor Air Temperatures {deltaC}

OS:SizingPeriod:DesignDay,
  {8d10417a-8b9b-4f12-9274-37765d29637e}, !- Handle
  Sizing Period Design Day 1,             !- Name
  -20.6,                                  !- Maximum Dry-Bulb Temperature {C}
  0,                                      !- Daily Dry-Bulb Temperature Range {deltaC}
  -20.6,                                  !- Humidity Indicating Conditions at Maximum Dry-Bulb {BasedOnField A3}
  99063,                                  !- Barometric Pressure {Pa}
  4.9,                                    !- Wind Speed {m/s}
  270,                                    !- Wind Direction {deg}
  0,                                      !- Sky Clearness
  0,                                      !- Rain Indicator
  0,                                      !- Snow Indicator
  21,                                     !- Day of Month
  1,                                      !- Month
  WinterDesignDay,                        !- Day Type
  0,                                      !- Daylight Saving Time Indicator
  WetBulb,                                !- Humidity Indicating Type
  ,                                       !- Humidity Indicating Day Schedule Name
  DefaultMultipliers,                     !- Dry-Bulb Temperature Range Modifier Type
  ,                                       !- Dry-Bulb Temperature Range Modifier Schedule Name
  AshraeClearSky;                         !- Solar Model Indicator

OS:SizingPeriod:DesignDay,
  {14974a08-abe8-4c1c-a90d-743ac0f29512}, !- Handle
  Sizing Period Design Day 2,             !- Name
  33.2,                                   !- Maximum Dry-Bulb Temperature {C}
  10.7,                                   !- Daily Dry-Bulb Temperature Range {deltaC}
  23.8,                                   !- Humidity Indicating Conditions at Maximum Dry-Bulb {BasedOnField A3}
  99063,                                  !- Barometric Pressure {Pa}
  5.3,                                    !- Wind Speed {m/s}
  230,                                    !- Wind Direction {deg}
  1,                                      !- Sky Clearness
  0,                                      !- Rain Indicator
  0,                                      !- Snow Indicator
  21,                                     !- Day of Month
  7,                                      !- Month
  SummerDesignDay,                        !- Day Type
  0,                                      !- Daylight Saving Time Indicator
  WetBulb,                                !- Humidity Indicating Type
  ,                                       !- Humidity Indicating Day Schedule Name
  DefaultMultipliers,                     !- Dry-Bulb Temperature Range Modifier Type
  ,                                       !- Dry-Bulb Temperature Range Modifier Schedule Name
  AshraeClearSky;                         !- Solar Model Indicator

OS:ScheduleTypeLimits,
  {4726b7fa-48e9-4989-bfa1-c26929c78f1c}, !- Handle
  Temperature,                            !- Name
  -60,                                    !- Lower Limit Value {BasedOnField A4}
  200,                                    !- Upper Limit Value {BasedOnField A4}
  CONTINUOUS,                             !- Numeric Type
  Temperature;                            !- Unit Type

OS:DefaultScheduleSet,
  {5776103e-2c1d-4bfb-94f7-9fdeefe0aee9}, !- Handle
  Default Schedules,                      !- Name
  ,                                       !- Hours of Operation Schedule Name
  {a80eef86-61bb-47e2-8448-da5cabcec256}, !- Number of People Schedule Name
  {10344f72-2e0b-4768-ae23-9bed28c89a51}, !- People Activity Level Schedule Name
  {7c65627c-4651-4bc4-8521-34e003699b7e}, !- Lighting Schedule Name
  {b2e95063-825a-46d5-aba3-e91d654e8dce}, !- Electric Equipment Schedule Name
  {9def72ea-ed13-4861-a84c-4ce1353ea746}, !- Gas Equipment Schedule Name
  {1689f49f-2c68-4df6-bb17-47d94d0bb17f}, !- Hot Water Equipment Schedule Name
  {43f42254-84ef-4e37-8cc3-6b8e2989d7d2}, !- Infiltration Schedule Name
  ,                                       !- Steam Equipment Schedule Name
  ;                                       !- Other Equipment Schedule Name

OS:Schedule:Ruleset,
  {a80eef86-61bb-47e2-8448-da5cabcec256}, !- Handle
  Medium Office Number of People Schedule, !- Name
  {4174ac84-5ae7-4752-9ac7-5d41375dd196}, !- Schedule Type Limits Name
  {2cb83216-199e-4282-9b4e-c603306ce25a}, !- Default Day Schedule Name
  {8c495833-c07c-443b-9bab-6037245f89e3}; !- Summer Design Day Schedule Name

OS:Schedule:Day,
  {2cb83216-199e-4282-9b4e-c603306ce25a}, !- Handle
  Medium Office Number of People All Other Days Schedule, !- Name
  {4174ac84-5ae7-4752-9ac7-5d41375dd196}, !- Schedule Type Limits Name
  ,                                       !- Interpolate to Timestep
  24,                                     !- Hour 1
  0,                                      !- Minute 1
  0;                                      !- Value Until Time 1

OS:Schedule:Day,
  {7819ebd3-cf45-43b1-a0a5-9498e2cbdfa9}, !- Handle
  Medium Office Number of People Summer Design Day Schedule, !- Name
  ,                                       !- Schedule Type Limits Name
  ,                                       !- Interpolate to Timestep
  6,                                      !- Hour 1
  0,                                      !- Minute 1
  0,                                      !- Value Until Time 1
  22,                                     !- Hour 2
  0,                                      !- Minute 2
  1,                                      !- Value Until Time 2
  24,                                     !- Hour 3
  0,                                      !- Minute 3
  0.05;                                   !- Value Until Time 3

OS:Schedule:Day,
  {8c495833-c07c-443b-9bab-6037245f89e3}, !- Handle
  Medium Office Number of People Summer Design Day Schedule 1, !- Name
  {4174ac84-5ae7-4752-9ac7-5d41375dd196}, !- Schedule Type Limits Name
  ,                                       !- Interpolate to Timestep
  6,                                      !- Hour 1
  0,                                      !- Minute 1
  0,                                      !- Value Until Time 1
  22,                                     !- Hour 2
  0,                                      !- Minute 2
  1,                                      !- Value Until Time 2
  24,                                     !- Hour 3
  0,                                      !- Minute 3
  0.05;                                   !- Value Until Time 3

OS:Schedule:Rule,
  {35f081ca-7d9c-4794-8487-03da4f2ab800}, !- Handle
  Medium Office Number of People Schedule Weekdays Rule, !- Name
  {a80eef86-61bb-47e2-8448-da5cabcec256}, !- Schedule Ruleset Name
  1,                                      !- Rule Order
  {3a03c039-8414-4baa-bb59-9ad857f20be1}, !- Day Schedule Name
  ,                                       !- Apply Sunday
  Yes,                                    !- Apply Monday
  Yes,                                    !- Apply Tuesday
  Yes,                                    !- Apply Wednesday
  Yes,                                    !- Apply Thursday
  Yes;                                    !- Apply Friday

OS:Schedule:Day,
  {3a03c039-8414-4baa-bb59-9ad857f20be1}, !- Handle
  Medium Office Number of People Weekdays Schedule, !- Name
  {4174ac84-5ae7-4752-9ac7-5d41375dd196}, !- Schedule Type Limits Name
  ,                                       !- Interpolate to Timestep
  6,                                      !- Hour 1
  0,                                      !- Minute 1
  0,                                      !- Value Until Time 1
  7,                                      !- Hour 2
  0,                                      !- Minute 2
  0.1,                                    !- Value Until Time 2
  8,                                      !- Hour 3
  0,                                      !- Minute 3
  0.2,                                    !- Value Until Time 3
  12,                                     !- Hour 4
  0,                                      !- Minute 4
  0.95,                                   !- Value Until Time 4
  13,                                     !- Hour 5
  0,                                      !- Minute 5
  0.5,                                    !- Value Until Time 5
  17,                                     !- Hour 6
  0,                                      !- Minute 6
  0.95,                                   !- Value Until Time 6
  18,                                     !- Hour 7
  0,                                      !- Minute 7
  0.7,                                    !- Value Until Time 7
  20,                                     !- Hour 8
  0,                                      !- Minute 8
  0.4,                                    !- Value Until Time 8
  22,                                     !- Hour 9
  0,                                      !- Minute 9
  0.1,                                    !- Value Until Time 9
  24,                                     !- Hour 10
  0,                                      !- Minute 10
  0.05;                                   !- Value Until Time 10

OS:Schedule:Rule,
  {5130061f-79d8-4d13-9c23-f366e0a7fe57}, !- Handle
  Medium Office Number of People Schedule Saturday Rule, !- Name
  {a80eef86-61bb-47e2-8448-da5cabcec256}, !- Schedule Ruleset Name
  0,                                      !- Rule Order
  {d65a323b-0421-41d6-a4f9-974356c61eaf}, !- Day Schedule Name
  ,                                       !- Apply Sunday
  ,                                       !- Apply Monday
  ,                                       !- Apply Tuesday
  ,                                       !- Apply Wednesday
  ,                                       !- Apply Thursday
  ,                                       !- Apply Friday
  Yes;                                    !- Apply Saturday

OS:Schedule:Day,
  {d65a323b-0421-41d6-a4f9-974356c61eaf}, !- Handle
  Medium Office Number of People Saturday Schedule, !- Name
  {4174ac84-5ae7-4752-9ac7-5d41375dd196}, !- Schedule Type Limits Name
  ,                                       !- Interpolate to Timestep
  6,                                      !- Hour 1
  0,                                      !- Minute 1
  0,                                      !- Value Until Time 1
  8,                                      !- Hour 2
  0,                                      !- Minute 2
  0.1,                                    !- Value Until Time 2
  14,                                     !- Hour 3
  0,                                      !- Minute 3
  0.5,                                    !- Value Until Time 3
  17,                                     !- Hour 4
  0,                                      !- Minute 4
  0.1,                                    !- Value Until Time 4
  24,                                     !- Hour 5
  0,                                      !- Minute 5
  0;                                      !- Value Until Time 5

OS:ScheduleTypeLimits,
  {4174ac84-5ae7-4752-9ac7-5d41375dd196}, !- Handle
  Fractional,                             !- Name
  0,                                      !- Lower Limit Value {BasedOnField A4}
  1,                                      !- Upper Limit Value {BasedOnField A4}
  Continuous;                             !- Numeric Type

OS:Schedule:Ruleset,
  {10344f72-2e0b-4768-ae23-9bed28c89a51}, !- Handle
  Medium Office People Activity Level Schedule, !- Name
  {75c5e55f-4d0b-43dd-b90c-5b1cbf2ee5f1}, !- Schedule Type Limits Name
  {c327278c-0ca5-4d75-ab03-394bb4dc65c6}; !- Default Day Schedule Name

OS:Schedule:Day,
  {c327278c-0ca5-4d75-ab03-394bb4dc65c6}, !- Handle
  Medium Office People Activity Level All Days Schedule, !- Name
  {75c5e55f-4d0b-43dd-b90c-5b1cbf2ee5f1}, !- Schedule Type Limits Name
  ,                                       !- Interpolate to Timestep
  24,                                     !- Hour 1
  0,                                      !- Minute 1
  120;                                    !- Value Until Time 1

OS:ScheduleTypeLimits,
  {75c5e55f-4d0b-43dd-b90c-5b1cbf2ee5f1}, !- Handle
  ActivityLevel,                          !- Name
  0,                                      !- Lower Limit Value {BasedOnField A4}
  ,                                       !- Upper Limit Value {BasedOnField A4}
  Continuous,                             !- Numeric Type
  ActivityLevel;                          !- Unit Type

OS:Schedule:Ruleset,
  {7c65627c-4651-4bc4-8521-34e003699b7e}, !- Handle
  Medium Office Lighting Schedule,        !- Name
  {4174ac84-5ae7-4752-9ac7-5d41375dd196}, !- Schedule Type Limits Name
  {4024463a-ca89-4eda-ae0b-dfbe7f5f52a0}, !- Default Day Schedule Name
  {ac6a71c3-f3f5-45ac-a1e7-9940f1a7da56}, !- Summer Design Day Schedule Name
  {7444fbc1-439a-4838-8b4c-be6f6accb3a8}; !- Winter Design Day Schedule Name

OS:Schedule:Day,
  {4024463a-ca89-4eda-ae0b-dfbe7f5f52a0}, !- Handle
  Medium Office Lighting All Other Days Schedule, !- Name
  {4174ac84-5ae7-4752-9ac7-5d41375dd196}, !- Schedule Type Limits Name
  ,                                       !- Interpolate to Timestep
  24,                                     !- Hour 1
  0,                                      !- Minute 1
  0.05;                                   !- Value Until Time 1

OS:Schedule:Day,
  {b526e51e-1de9-4bd3-b72f-03d1dabb7dde}, !- Handle
  Medium Office Lighting Summer Design Day Schedule, !- Name
  ,                                       !- Schedule Type Limits Name
  ,                                       !- Interpolate to Timestep
  6,                                      !- Hour 1
  0,                                      !- Minute 1
  1,                                      !- Value Until Time 1
  24,                                     !- Hour 2
  0,                                      !- Minute 2
  0;                                      !- Value Until Time 2

OS:Schedule:Day,
  {ac6a71c3-f3f5-45ac-a1e7-9940f1a7da56}, !- Handle
  Medium Office Lighting Summer Design Day Schedule 1, !- Name
  {4174ac84-5ae7-4752-9ac7-5d41375dd196}, !- Schedule Type Limits Name
  ,                                       !- Interpolate to Timestep
  6,                                      !- Hour 1
  0,                                      !- Minute 1
  1,                                      !- Value Until Time 1
  24,                                     !- Hour 2
  0,                                      !- Minute 2
  0;                                      !- Value Until Time 2

OS:Schedule:Day,
  {801149ff-7c9c-4b6f-aae3-426d3bf92181}, !- Handle
  Medium Office Lighting Winter Design Day Schedule, !- Name
  ,                                       !- Schedule Type Limits Name
  ,                                       !- Interpolate to Timestep
  24,                                     !- Hour 1
  0,                                      !- Minute 1
  0;                                      !- Value Until Time 1

OS:Schedule:Day,
  {7444fbc1-439a-4838-8b4c-be6f6accb3a8}, !- Handle
  Medium Office Lighting Winter Design Day Schedule 1, !- Name
  {4174ac84-5ae7-4752-9ac7-5d41375dd196}, !- Schedule Type Limits Name
  ,                                       !- Interpolate to Timestep
  24,                                     !- Hour 1
  0,                                      !- Minute 1
  0;                                      !- Value Until Time 1

OS:Schedule:Rule,
  {648c9166-a06c-480d-bb9b-1d7c0852bf6e}, !- Handle
  Medium Office Lighting Schedule Weekdays Rule, !- Name
  {7c65627c-4651-4bc4-8521-34e003699b7e}, !- Schedule Ruleset Name
  1,                                      !- Rule Order
  {ff55f005-fb72-4755-b084-42af52711f01}, !- Day Schedule Name
  ,                                       !- Apply Sunday
  Yes,                                    !- Apply Monday
  Yes,                                    !- Apply Tuesday
  Yes,                                    !- Apply Wednesday
  Yes,                                    !- Apply Thursday
  Yes;                                    !- Apply Friday

OS:Schedule:Day,
  {ff55f005-fb72-4755-b084-42af52711f01}, !- Handle
  Medium Office Lighting Weekdays Schedule, !- Name
  {4174ac84-5ae7-4752-9ac7-5d41375dd196}, !- Schedule Type Limits Name
  ,                                       !- Interpolate to Timestep
  5,                                      !- Hour 1
  0,                                      !- Minute 1
  0.05,                                   !- Value Until Time 1
  7,                                      !- Hour 2
  0,                                      !- Minute 2
  0.1,                                    !- Value Until Time 2
  8,                                      !- Hour 3
  0,                                      !- Minute 3
  0.3,                                    !- Value Until Time 3
  17,                                     !- Hour 4
  0,                                      !- Minute 4
  0.9,                                    !- Value Until Time 4
  18,                                     !- Hour 5
  0,                                      !- Minute 5
  0.7,                                    !- Value Until Time 5
  20,                                     !- Hour 6
  0,                                      !- Minute 6
  0.5,                                    !- Value Until Time 6
  22,                                     !- Hour 7
  0,                                      !- Minute 7
  0.3,                                    !- Value Until Time 7
  23,                                     !- Hour 8
  0,                                      !- Minute 8
  0.1,                                    !- Value Until Time 8
  24,                                     !- Hour 9
  0,                                      !- Minute 9
  0.05;                                   !- Value Until Time 9

OS:Schedule:Rule,
  {9c0180d3-a25b-4dff-848c-8012fae4d260}, !- Handle
  Medium Office Lighting Schedule Saturday Rule, !- Name
  {7c65627c-4651-4bc4-8521-34e003699b7e}, !- Schedule Ruleset Name
  0,                                      !- Rule Order
  {525ddad4-bc46-4f5f-942b-f1eca356bb41}, !- Day Schedule Name
  ,                                       !- Apply Sunday
  ,                                       !- Apply Monday
  ,                                       !- Apply Tuesday
  ,                                       !- Apply Wednesday
  ,                                       !- Apply Thursday
  ,                                       !- Apply Friday
  Yes;                                    !- Apply Saturday

OS:Schedule:Day,
  {525ddad4-bc46-4f5f-942b-f1eca356bb41}, !- Handle
  Medium Office Lighting Saturday Schedule, !- Name
  {4174ac84-5ae7-4752-9ac7-5d41375dd196}, !- Schedule Type Limits Name
  ,                                       !- Interpolate to Timestep
  6,                                      !- Hour 1
  0,                                      !- Minute 1
  0.05,                                   !- Value Until Time 1
  8,                                      !- Hour 2
  0,                                      !- Minute 2
  0.1,                                    !- Value Until Time 2
  14,                                     !- Hour 3
  0,                                      !- Minute 3
  0.5,                                    !- Value Until Time 3
  17,                                     !- Hour 4
  0,                                      !- Minute 4
  0.15,                                   !- Value Until Time 4
  24,                                     !- Hour 5
  0,                                      !- Minute 5
  0.05;                                   !- Value Until Time 5

OS:Schedule:Ruleset,
  {b2e95063-825a-46d5-aba3-e91d654e8dce}, !- Handle
  Medium Office Electric Equipment Schedule, !- Name
  {4174ac84-5ae7-4752-9ac7-5d41375dd196}, !- Schedule Type Limits Name
  {1b1600f4-578e-4133-9db2-40a14afb94fe}, !- Default Day Schedule Name
  {cad8f61e-f5e8-43b4-af04-adad3ef8968d}, !- Summer Design Day Schedule Name
  {7745a282-f004-4fb1-a4b1-3be3af13d1ad}; !- Winter Design Day Schedule Name

OS:Schedule:Day,
  {1b1600f4-578e-4133-9db2-40a14afb94fe}, !- Handle
  Medium Office Electric Equipment All Other Days Schedule, !- Name
  {4174ac84-5ae7-4752-9ac7-5d41375dd196}, !- Schedule Type Limits Name
  ,                                       !- Interpolate to Timestep
  24,                                     !- Hour 1
  0,                                      !- Minute 1
  0.3;                                    !- Value Until Time 1

OS:Schedule:Day,
  {e42920a3-727e-4241-8ffc-d2c2085148ee}, !- Handle
  Medium Office Electric Equipment Summer Design Day Schedule, !- Name
  ,                                       !- Schedule Type Limits Name
  ,                                       !- Interpolate to Timestep
  6,                                      !- Hour 1
  0,                                      !- Minute 1
  1,                                      !- Value Until Time 1
  24,                                     !- Hour 2
  0,                                      !- Minute 2
  0;                                      !- Value Until Time 2

OS:Schedule:Day,
  {cad8f61e-f5e8-43b4-af04-adad3ef8968d}, !- Handle
  Medium Office Electric Equipment Summer Design Day Schedule 1, !- Name
  {4174ac84-5ae7-4752-9ac7-5d41375dd196}, !- Schedule Type Limits Name
  ,                                       !- Interpolate to Timestep
  6,                                      !- Hour 1
  0,                                      !- Minute 1
  1,                                      !- Value Until Time 1
  24,                                     !- Hour 2
  0,                                      !- Minute 2
  0;                                      !- Value Until Time 2

OS:Schedule:Day,
  {6171486e-84c0-4c79-86d0-7975d786c05c}, !- Handle
  Medium Office Electric Equipment Winter Design Day Schedule, !- Name
  ,                                       !- Schedule Type Limits Name
  ,                                       !- Interpolate to Timestep
  24,                                     !- Hour 1
  0,                                      !- Minute 1
  0;                                      !- Value Until Time 1

OS:Schedule:Day,
  {7745a282-f004-4fb1-a4b1-3be3af13d1ad}, !- Handle
  Medium Office Electric Equipment Winter Design Day Schedule 1, !- Name
  {4174ac84-5ae7-4752-9ac7-5d41375dd196}, !- Schedule Type Limits Name
  ,                                       !- Interpolate to Timestep
  24,                                     !- Hour 1
  0,                                      !- Minute 1
  0;                                      !- Value Until Time 1

OS:Schedule:Rule,
  {594692c7-fbe8-4cc5-b33c-b89d308a436a}, !- Handle
  Medium Office Electric Equipment Schedule Weekdays Rule, !- Name
  {b2e95063-825a-46d5-aba3-e91d654e8dce}, !- Schedule Ruleset Name
  1,                                      !- Rule Order
  {921829a4-99de-4e2c-a5cb-88c784f417a4}, !- Day Schedule Name
  ,                                       !- Apply Sunday
  Yes,                                    !- Apply Monday
  Yes,                                    !- Apply Tuesday
  Yes,                                    !- Apply Wednesday
  Yes,                                    !- Apply Thursday
  Yes;                                    !- Apply Friday

OS:Schedule:Day,
  {921829a4-99de-4e2c-a5cb-88c784f417a4}, !- Handle
  Medium Office Electric Equipment Weekdays Schedule, !- Name
  {4174ac84-5ae7-4752-9ac7-5d41375dd196}, !- Schedule Type Limits Name
  ,                                       !- Interpolate to Timestep
  8,                                      !- Hour 1
  0,                                      !- Minute 1
  0.4,                                    !- Value Until Time 1
  12,                                     !- Hour 2
  0,                                      !- Minute 2
  0.9,                                    !- Value Until Time 2
  13,                                     !- Hour 3
  0,                                      !- Minute 3
  0.8,                                    !- Value Until Time 3
  17,                                     !- Hour 4
  0,                                      !- Minute 4
  0.9,                                    !- Value Until Time 4
  18,                                     !- Hour 5
  0,                                      !- Minute 5
  0.8,                                    !- Value Until Time 5
  20,                                     !- Hour 6
  0,                                      !- Minute 6
  0.6,                                    !- Value Until Time 6
  22,                                     !- Hour 7
  0,                                      !- Minute 7
  0.5,                                    !- Value Until Time 7
  24,                                     !- Hour 8
  0,                                      !- Minute 8
  0.4;                                    !- Value Until Time 8

OS:Schedule:Rule,
  {cd502772-cefb-4d14-8814-63522828e82f}, !- Handle
  Medium Office Electric Equipment Schedule Saturday Rule, !- Name
  {b2e95063-825a-46d5-aba3-e91d654e8dce}, !- Schedule Ruleset Name
  0,                                      !- Rule Order
  {bf88d31e-9672-418b-bee5-b0d05d1a6cfa}, !- Day Schedule Name
  ,                                       !- Apply Sunday
  ,                                       !- Apply Monday
  ,                                       !- Apply Tuesday
  ,                                       !- Apply Wednesday