
OS:Version,
  {7d5b55d9-4c2a-42ae-bd4e-91757ce9b9a4}, !- Handle
  1.10.3;                                 !- Version Identifier

OS:Construction,
  {8ff4fcfe-39a0-4b59-a389-4030becbd37e}, !- Handle
  Exterior Door,                          !- Name
  ,                                       !- Surface Rendering Name
  {8efc299d-758e-42d7-b6eb-36e885a8026b}, !- Layer 1
  {fe33c1f6-e30f-45f3-bd29-82b7de3024d9}; !- Layer 2

OS:Material,
  {8efc299d-758e-42d7-b6eb-36e885a8026b}, !- Handle
  F08 Metal surface,                      !- Name
  Smooth,                                 !- Roughness
  0.0008,                                 !- Thickness {m}
  45.28,                                  !- Conductivity {W/m-K}
  7824,                                   !- Density {kg/m3}
  500;                                    !- Specific Heat {J/kg-K}

OS:Material,
  {fe33c1f6-e30f-45f3-bd29-82b7de3024d9}, !- Handle
  I02 25mm insulation board,              !- Name
  MediumRough,                            !- Roughness
  0.0254,                                 !- Thickness {m}
  0.03,                                   !- Conductivity {W/m-K}
  43,                                     !- Density {kg/m3}
  1210;                                   !- Specific Heat {J/kg-K}

OS:StandardsInformation:Construction,
  {c62b41c5-0ae6-4859-95c7-b3e56f719c8c}, !- Handle
  {8ff4fcfe-39a0-4b59-a389-4030becbd37e}, !- Construction Name
  ,                                       !- Intended Surface Type
  ,                                       !- Standards Construction Type
  1,                                      !- Perturbable Layer
  Insulation,                             !- Perturbable Layer Type
  ;                                       !- Other Perturbable Layer Type

OS:ComponentData,
  {c84ba79b-20be-491a-b0ae-e79bbb3d2a66}, !- Handle
  Component Data 1,                       !- Name
  {3bfb1f6e-2ce6-41c7-afa6-6d37256b38ec}, !- UUID
  {331b0f2e-dc59-4267-9945-e60d38485122}, !- Version UUID
  1454690207,                             !- Creation Timestamp
  1454690207,                             !- Version Timestamp
  {8ff4fcfe-39a0-4b59-a389-4030becbd37e}, !- Name of Object 1
  {8efc299d-758e-42d7-b6eb-36e885a8026b}, !- Name of Object 2
  {fe33c1f6-e30f-45f3-bd29-82b7de3024d9}, !- Name of Object 3
  {c62b41c5-0ae6-4859-95c7-b3e56f719c8c}; !- Name of Object 4

