
OS:Version,
  {2e667ff2-06d5-4ee9-a2b6-dec5b9565b43}, !- Handle
  1.2.5;                                  !- Version Identifier

OS:SimulationControl,
  {0f2b7d8f-48fa-48ba-a7a0-8feb0cb70f7c}, !- Handle
  Yes,                                    !- Do Zone Sizing Calculation
  Yes,                                    !- Do System Sizing Calculation
  ,                                       !- Do Plant Sizing Calculation
  No,                                     !- Run Simulation for Sizing Periods
  Yes;                                    !- Run Simulation for Weather File Run Periods

OS:Timestep,
  {62e4e430-dedf-41cc-9e5a-331f6c782e1f}, !- Handle
  6;                                      !- Number of Timesteps per Hour

OS:RunPeriod,
  {87c2cf2b-3f4a-4260-b655-ddfb3504bf01}, !- Handle
  Run Period 1,                           !- Name
  1,                                      !- Begin Month
  1,                                      !- Begin Day of Month
  12,                                     !- End Month
  31,                                     !- End Day of Month
  No,                                     !- Use Weather File Holidays and Special Days
  No,                                     !- Use Weather File Daylight Saving Period
  No,                                     !- Apply Weekend Holiday Rule
  Yes,                                    !- Use Weather File Rain Indicators
  Yes,                                    !- Use Weather File Snow Indicators
  1;                                      !- Number of Times Runperiod to be Repeated

OS:SurfaceConvectionAlgorithm:Inside,
  {9003287d-a8db-4a56-8ad1-9f89dbbbea64}, !- Handle
  TARP;                                   !- Algorithm

OS:SurfaceConvectionAlgorithm:Outside,
  {9dfc4c80-369a-4388-8990-96798a2cd5f6}, !- Handle
  DOE-2;                                  !- Algorithm

OS:HeatBalanceAlgorithm,
  {dde8ba84-213f-4aaf-baa7-3b24ac8d2fa0}, !- Handle
  ConductionTransferFunction,             !- Algorithm
  200;                                    !- Surface Temperature Upper Limit {F}

OS:ZoneAirHeatBalanceAlgorithm,
  {82bacf88-c02a-450b-8d37-6626369edd02}, !- Handle
  AnalyticalSolution;                     !- Algorithm

OS:ConvergenceLimits,
  {05b7f128-124f-4d06-a5f4-c72d36dfbb37}; !- Handle

OS:ShadowCalculation,
  {8c8d5ad2-57e0-47cb-80ac-f15c858a232e}, !- Handle
  7,                                      !- Calculation Frequency
  15000;                                  !- Maximum Figures in Shadow Overlap Calculations

OS:Site,
  {e1b9b517-0440-4358-b291-e83370b4e348}, !- Handle
  Site 1,                                 !- Name
  41.77,                                  !- Latitude {deg}
  -87.75,                                 !- Longitude {deg}
  -6,                                     !- Time Zone {hr}
  190,                                    !- Elevation {m}
  ;                                       !- Terrain

OS:Site:GroundTemperature:BuildingSurface,
  {cf02ddb1-7d9c-46fe-a393-7ec2e08158aa}, !- Handle
  19.527,                                 !- January Ground Temperature {C}
  19.502,                                 !- February Ground Temperature {C}
  19.536,                                 !- March Ground Temperature {C}
  19.598,                                 !- April Ground Temperature {C}
  20.002,                                 !- May Ground Temperature {C}
  21.64,                                  !- June Ground Temperature {C}
  22.225,                                 !- July Ground Temperature {C}
  22.375,                                 !- August Ground Temperature {C}
  21.449,                                 !- September Ground Temperature {C}
  20.121,                                 !- October Ground Temperature {C}
  19.802,                                 !- November Ground Temperature {C}
  19.633;                                 !- December Ground Temperature {C}

OS:Site:WaterMainsTemperature,
  {ea91aeca-46b1-4eec-b5a5-2c021cea4a61}, !- Handle
  Correlation,                            !- Calculation Method
  ,                                       !- Temperature Schedule Name
  9.69,                                   !- Annual Average Outdoor Air Temperature {C}
  28.1;                                   !- Maximum Difference In Monthly Average Outdoor Air Temperatures {deltaC}

OS:SizingPeriod:DesignDay,
  {486aee3c-c65f-4866-9d71-5448648a3288}, !- Handle
  Sizing Period Design Day 1,             !- Name
  -20.6,                                  !- Maximum Dry-Bulb Temperature {C}
  0,                                      !- Daily Dry-Bulb Temperature Range {deltaC}
  -20.6,                                  !- Humidity Indicating Conditions at Maximum Dry-Bulb {BasedOnField A3}
  99063,                                  !- Barometric Pressure {Pa}
  4.9,                                    !- Wind Speed {m/s}
  270,                                    !- Wind Direction {deg}
  0,                                      !- Sky Clearness
  0,                                      !- Rain Indicator
  0,                                      !- Snow Indicator
  21,                                     !- Day of Month
  1,                                      !- Month
  WinterDesignDay,                        !- Day Type
  0,                                      !- Daylight Saving Time Indicator
  WetBulb,                                !- Humidity Indicating Type
  ,                                       !- Humidity Indicating Day Schedule Name
  DefaultMultipliers,                     !- Dry-Bulb Temperature Range Modifier Type
  ,                                       !- Dry-Bulb Temperature Range Modifier Schedule Name
  AshraeClearSky;                         !- Solar Model Indicator

OS:SizingPeriod:DesignDay,
  {38908265-414f-4bfc-99ff-ab9e3c70a97d}, !- Handle
  Sizing Period Design Day 2,             !- Name
  33.2,                                   !- Maximum Dry-Bulb Temperature {C}
  10.7,                                   !- Daily Dry-Bulb Temperature Range {deltaC}
  23.8,                                   !- Humidity Indicating Conditions at Maximum Dry-Bulb {BasedOnField A3}
  99063,                                  !- Barometric Pressure {Pa}
  5.3,                                    !- Wind Speed {m/s}
  230,                                    !- Wind Direction {deg}
  1,                                      !- Sky Clearness
  0,                                      !- Rain Indicator
  0,                                      !- Snow Indicator
  21,                                     !- Day of Month
  7,                                      !- Month
  SummerDesignDay,                        !- Day Type
  0,                                      !- Daylight Saving Time Indicator
  WetBulb,                                !- Humidity Indicating Type
  ,                                       !- Humidity Indicating Day Schedule Name
  DefaultMultipliers,                     !- Dry-Bulb Temperature Range Modifier Type
  ,                                       !- Dry-Bulb Temperature Range Modifier Schedule Name
  AshraeClearSky;                         !- Solar Model Indicator

OS:ScheduleTypeLimits,
  {8540dc0f-730a-4a90-bb89-29eb211e1f76}, !- Handle
  Temperature,                            !- Name
  -60,                                    !- Lower Limit Value {BasedOnField A4}
  200,                                    !- Upper Limit Value {BasedOnField A4}
  CONTINUOUS,                             !- Numeric Type
  Temperature;                            !- Unit Type

OS:DefaultScheduleSet,
  {18c65923-d0d7-435f-ba6e-f4670ee77052}, !- Handle
  Default Schedules,                      !- Name
  ,                                       !- Hours of Operation Schedule Name
  {c828e861-87b7-4ae2-bfc1-e085d69b05d4}, !- Number of People Schedule Name
  {371b6f92-e6cc-4dfc-846c-006f6aa3eb5b}, !- People Activity Level Schedule Name
  {0018cf5a-6791-427a-bae5-3416fc8523f9}, !- Lighting Schedule Name
  {19da2a40-20ad-46ea-bd8a-8a759aa055b9}, !- Electric Equipment Schedule Name
  {14f33268-b1bf-4abf-ae5d-485e396d432f}, !- Gas Equipment Schedule Name
  {28b0ef76-e0ef-40b9-b1ce-c46a82a9e675}, !- Hot Water Equipment Schedule Name
  {199197bd-1cb5-481f-b5d3-b91591e2a5c7}, !- Infiltration Schedule Name
  ,                                       !- Steam Equipment Schedule Name
  ;                                       !- Other Equipment Schedule Name

OS:Schedule:Ruleset,
  {c828e861-87b7-4ae2-bfc1-e085d69b05d4}, !- Handle
  Medium Office Number of People Schedule, !- Name
  {2fcf72f6-7ed0-4a26-aae8-475615291952}, !- Schedule Type Limits Name
  {cbd56bb1-d23f-4d39-bff2-5a5b2d808bf5}, !- Default Day Schedule Name
  {6214d7b1-5634-4d2f-9836-e9051f97bd26}; !- Summer Design Day Schedule Name

OS:Schedule:Day,
  {cbd56bb1-d23f-4d39-bff2-5a5b2d808bf5}, !- Handle
  Medium Office Number of People All Other Days Schedule, !- Name
  {2fcf72f6-7ed0-4a26-aae8-475615291952}, !- Schedule Type Limits Name
  ,                                       !- Interpolate to Timestep
  24,                                     !- Hour 1
  0,                                      !- Minute 1
  0;                                      !- Value Until Time 1

OS:Schedule:Day,
  {8dad928a-29b2-44f1-af8d-a6e208a409fe}, !- Handle
  Medium Office Number of People Summer Design Day Schedule, !- Name
  ,                                       !- Schedule Type Limits Name
  ,                                       !- Interpolate to Timestep
  6,                                      !- Hour 1
  0,                                      !- Minute 1
  0,                                      !- Value Until Time 1
  22,                                     !- Hour 2
  0,                                      !- Minute 2
  1,                                      !- Value Until Time 2
  24,                                     !- Hour 3
  0,                                      !- Minute 3
  0.05;                                   !- Value Until Time 3

OS:Schedule:Day,
  {6214d7b1-5634-4d2f-9836-e9051f97bd26}, !- Handle
  Medium Office Number of People Summer Design Day Schedule 1, !- Name
  {2fcf72f6-7ed0-4a26-aae8-475615291952}, !- Schedule Type Limits Name
  ,                                       !- Interpolate to Timestep
  6,                                      !- Hour 1
  0,                                      !- Minute 1
  0,                                      !- Value Until Time 1
  22,                                     !- Hour 2
  0,                                      !- Minute 2
  1,                                      !- Value Until Time 2
  24,                                     !- Hour 3
  0,                                      !- Minute 3
  0.05;                                   !- Value Until Time 3

OS:Schedule:Rule,
  {5a6fe5c2-23f8-4b28-a19e-a0cfc633a322}, !- Handle
  Medium Office Number of People Schedule Weekdays Rule, !- Name
  {c828e861-87b7-4ae2-bfc1-e085d69b05d4}, !- Schedule Ruleset Name
  1,                                      !- Rule Order
  {6830f71b-f1ff-45fe-bba7-1872764ad0b3}, !- Day Schedule Name
  ,                                       !- Apply Sunday
  Yes,                                    !- Apply Monday
  Yes,                                    !- Apply Tuesday
  Yes,                                    !- Apply Wednesday
  Yes,                                    !- Apply Thursday
  Yes;                                    !- Apply Friday

OS:Schedule:Day,
  {6830f71b-f1ff-45fe-bba7-1872764ad0b3}, !- Handle
  Medium Office Number of People Weekdays Schedule, !- Name
  {2fcf72f6-7ed0-4a26-aae8-475615291952}, !- Schedule Type Limits Name
  ,                                       !- Interpolate to Timestep
  6,                                      !- Hour 1
  0,                                      !- Minute 1
  0,                                      !- Value Until Time 1
  7,                                      !- Hour 2
  0,                                      !- Minute 2
  0.1,                                    !- Value Until Time 2
  8,                                      !- Hour 3
  0,                                      !- Minute 3
  0.2,                                    !- Value Until Time 3
  12,                                     !- Hour 4
  0,                                      !- Minute 4
  0.95,                                   !- Value Until Time 4
  13,                                     !- Hour 5
  0,                                      !- Minute 5
  0.5,                                    !- Value Until Time 5
  17,                                     !- Hour 6
  0,                                      !- Minute 6
  0.95,                                   !- Value Until Time 6
  18,                                     !- Hour 7
  0,                                      !- Minute 7
  0.7,                                    !- Value Until Time 7
  20,                                     !- Hour 8
  0,                                      !- Minute 8
  0.4,                                    !- Value Until Time 8
  22,                                     !- Hour 9
  0,                                      !- Minute 9
  0.1,                                    !- Value Until Time 9
  24,                                     !- Hour 10
  0,                                      !- Minute 10
  0.05;                                   !- Value Until Time 10

OS:Schedule:Rule,
  {425b8707-d4ba-48cd-b987-91230d674428}, !- Handle
  Medium Office Number of People Schedule Saturday Rule, !- Name
  {c828e861-87b7-4ae2-bfc1-e085d69b05d4}, !- Schedule Ruleset Name
  0,                                      !- Rule Order
  {0b186179-fcca-4b8d-9926-8af263491708}, !- Day Schedule Name
  ,                                       !- Apply Sunday
  ,                                       !- Apply Monday
  ,                                       !- Apply Tuesday
  ,                                       !- Apply Wednesday
  ,                                       !- Apply Thursday
  ,                                       !- Apply Friday
  Yes;                                    !- Apply Saturday

OS:Schedule:Day,
  {0b186179-fcca-4b8d-9926-8af263491708}, !- Handle
  Medium Office Number of People Saturday Schedule, !- Name
  {2fcf72f6-7ed0-4a26-aae8-475615291952}, !- Schedule Type Limits Name
  ,                                       !- Interpolate to Timestep
  6,                                      !- Hour 1
  0,                                      !- Minute 1
  0,                                      !- Value Until Time 1
  8,                                      !- Hour 2
  0,                                      !- Minute 2
  0.1,                                    !- Value Until Time 2
  14,                                     !- Hour 3
  0,                                      !- Minute 3
  0.5,                                    !- Value Until Time 3
  17,                                     !- Hour 4
  0,                                      !- Minute 4
  0.1,                                    !- Value Until Time 4
  24,                                     !- Hour 5
  0,                                      !- Minute 5
  0;                                      !- Value Until Time 5

OS:ScheduleTypeLimits,
  {2fcf72f6-7ed0-4a26-aae8-475615291952}, !- Handle
  Fractional,                             !- Name
  0,                                      !- Lower Limit Value {BasedOnField A4}
  1,                                      !- Upper Limit Value {BasedOnField A4}
  Continuous;                             !- Numeric Type

OS:Schedule:Ruleset,
  {371b6f92-e6cc-4dfc-846c-006f6aa3eb5b}, !- Handle
  Medium Office People Activity Level Schedule, !- Name
  {219fe2ab-71fb-466b-97e2-10da1f62a163}, !- Schedule Type Limits Name
  {ea3c7ec3-c42e-4c80-9c01-b495b36bc475}; !- Default Day Schedule Name

OS:Schedule:Day,
  {ea3c7ec3-c42e-4c80-9c01-b495b36bc475}, !- Handle
  Medium Office People Activity Level All Days Schedule, !- Name
  {219fe2ab-71fb-466b-97e2-10da1f62a163}, !- Schedule Type Limits Name
  ,                                       !- Interpolate to Timestep
  24,                                     !- Hour 1
  0,                                      !- Minute 1
  120;                                    !- Value Until Time 1

OS:ScheduleTypeLimits,
  {219fe2ab-71fb-466b-97e2-10da1f62a163}, !- Handle
  ActivityLevel,                          !- Name
  0,                                      !- Lower Limit Value {BasedOnField A4}
  ,                                       !- Upper Limit Value {BasedOnField A4}
  Continuous,                             !- Numeric Type
  ActivityLevel;                          !- Unit Type

OS:Schedule:Ruleset,
  {0018cf5a-6791-427a-bae5-3416fc8523f9}, !- Handle
  Medium Office Lighting Schedule,        !- Name
  {2fcf72f6-7ed0-4a26-aae8-475615291952}, !- Schedule Type Limits Name
  {b04e965b-c22c-4943-9dd0-b239e81fe80d}, !- Default Day Schedule Name
  {fd3c8b40-b5fe-4d39-b987-867db3a626fb}, !- Summer Design Day Schedule Name
  {853a8ab3-8e5e-451c-b005-bfdac7945992}; !- Winter Design Day Schedule Name

OS:Schedule:Day,
  {b04e965b-c22c-4943-9dd0-b239e81fe80d}, !- Handle
  Medium Office Lighting All Other Days Schedule, !- Name
  {2fcf72f6-7ed0-4a26-aae8-475615291952}, !- Schedule Type Limits Name
  ,                                       !- Interpolate to Timestep
  24,                                     !- Hour 1
  0,                                      !- Minute 1
  0.05;                                   !- Value Until Time 1

OS:Schedule:Day,
  {31ded01f-0069-4f19-897c-71bdd55d4b41}, !- Handle
  Medium Office Lighting Summer Design Day Schedule, !- Name
  ,                                       !- Schedule Type Limits Name
  ,                                       !- Interpolate to Timestep
  6,                                      !- Hour 1
  0,                                      !- Minute 1
  1,                                      !- Value Until Time 1
  24,                                     !- Hour 2
  0,                                      !- Minute 2
  0;                                      !- Value Until Time 2

OS:Schedule:Day,
  {fd3c8b40-b5fe-4d39-b987-867db3a626fb}, !- Handle
  Medium Office Lighting Summer Design Day Schedule 1, !- Name
  {2fcf72f6-7ed0-4a26-aae8-475615291952}, !- Schedule Type Limits Name
  ,                                       !- Interpolate to Timestep
  6,                                      !- Hour 1
  0,                                      !- Minute 1
  1,                                      !- Value Until Time 1
  24,                                     !- Hour 2
  0,                                      !- Minute 2
  0;                                      !- Value Until Time 2

OS:Schedule:Day,
  {7ee994d5-a439-4040-ae41-258c4fad29e3}, !- Handle
  Medium Office Lighting Winter Design Day Schedule, !- Name
  ,                                       !- Schedule Type Limits Name
  ,                                       !- Interpolate to Timestep
  24,                                     !- Hour 1
  0,                                      !- Minute 1
  0;                                      !- Value Until Time 1

OS:Schedule:Day,
  {853a8ab3-8e5e-451c-b005-bfdac7945992}, !- Handle
  Medium Office Lighting Winter Design Day Schedule 1, !- Name
  {2fcf72f6-7ed0-4a26-aae8-475615291952}, !- Schedule Type Limits Name
  ,                                       !- Interpolate to Timestep
  24,                                     !- Hour 1
  0,                                      !- Minute 1
  0;                                      !- Value Until Time 1

OS:Schedule:Rule,
  {7bc536cd-a8f8-47b4-be6c-56b193df49a9}, !- Handle
  Medium Office Lighting Schedule Weekdays Rule, !- Name
  {0018cf5a-6791-427a-bae5-3416fc8523f9}, !- Schedule Ruleset Name
  1,                                      !- Rule Order
  {0f145d29-fd65-4b91-b576-6443cb9ba66a}, !- Day Schedule Name
  ,                                       !- Apply Sunday
  Yes,                                    !- Apply Monday
  Yes,                                    !- Apply Tuesday
  Yes,                                    !- Apply Wednesday
  Yes,                                    !- Apply Thursday
  Yes;                                    !- Apply Friday

OS:Schedule:Day,
  {0f145d29-fd65-4b91-b576-6443cb9ba66a}, !- Handle
  Medium Office Lighting Weekdays Schedule, !- Name
  {2fcf72f6-7ed0-4a26-aae8-475615291952}, !- Schedule Type Limits Name
  ,                                       !- Interpolate to Timestep
  5,                                      !- Hour 1
  0,                                      !- Minute 1
  0.05,                                   !- Value Until Time 1
  7,                                      !- Hour 2
  0,                                      !- Minute 2
  0.1,                                    !- Value Until Time 2
  8,                                      !- Hour 3
  0,                                      !- Minute 3
  0.3,                                    !- Value Until Time 3
  17,                                     !- Hour 4
  0,                                      !- Minute 4
  0.9,                                    !- Value Until Time 4
  18,                                     !- Hour 5
  0,                                      !- Minute 5
  0.7,                                    !- Value Until Time 5
  20,                                     !- Hour 6
  0,                                      !- Minute 6
  0.5,                                    !- Value Until Time 6
  22,                                     !- Hour 7
  0,                                      !- Minute 7
  0.3,                                    !- Value Until Time 7
  23,                                     !- Hour 8
  0,                                      !- Minute 8
  0.1,                                    !- Value Until Time 8
  24,                                     !- Hour 9
  0,                                      !- Minute 9
  0.05;                                   !- Value Until Time 9

OS:Schedule:Rule,
  {6a4aa13c-662d-4493-84dc-bc108c950adc}, !- Handle
  Medium Office Lighting Schedule Saturday Rule, !- Name
  {0018cf5a-6791-427a-bae5-3416fc8523f9}, !- Schedule Ruleset Name
  0,                                      !- Rule Order
  {f020bc67-4c69-4730-98ad-398c8f905f4f}, !- Day Schedule Name
  ,                                       !- Apply Sunday
  ,                                       !- Apply Monday
  ,                                       !- Apply Tuesday
  ,                                       !- Apply Wednesday
  ,                                       !- Apply Thursday
  ,                                       !- Apply Friday
  Yes;                                    !- Apply Saturday

OS:Schedule:Day,
  {f020bc67-4c69-4730-98ad-398c8f905f4f}, !- Handle
  Medium Office Lighting Saturday Schedule, !- Name
  {2fcf72f6-7ed0-4a26-aae8-475615291952}, !- Schedule Type Limits Name
  ,                                       !- Interpolate to Timestep
  6,                                      !- Hour 1
  0,                                      !- Minute 1
  0.05,                                   !- Value Until Time 1
  8,                                      !- Hour 2
  0,                                      !- Minute 2
  0.1,                                    !- Value Until Time 2
  14,                                     !- Hour 3
  0,                                      !- Minute 3
  0.5,                                    !- Value Until Time 3
  17,                                     !- Hour 4
  0,                                      !- Minute 4
  0.15,                                   !- Value Until Time 4
  24,                                     !- Hour 5
  0,                                      !- Minute 5
  0.05;                                   !- Value Until Time 5

OS:Schedule:Ruleset,
  {19da2a40-20ad-46ea-bd8a-8a759aa055b9}, !- Handle
  Medium Office Electric Equipment Schedule, !- Name
  {2fcf72f6-7ed0-4a26-aae8-475615291952}, !- Schedule Type Limits Name
  {3fad90c4-65a1-4286-a266-f5d6a87698db}, !- Default Day Schedule Name
  {2e7a1427-c796-4cc7-90af-c2da24ceecd2}, !- Summer Design Day Schedule Name
  {d535c313-a3f3-42c4-8e06-9f7a8f433738}; !- Winter Design Day Schedule Name

OS:Schedule:Day,
  {3fad90c4-65a1-4286-a266-f5d6a87698db}, !- Handle
  Medium Office Electric Equipment All Other Days Schedule, !- Name
  {2fcf72f6-7ed0-4a26-aae8-475615291952}, !- Schedule Type Limits Name
  ,                                       !- Interpolate to Timestep
  24,                                     !- Hour 1
  0,                                      !- Minute 1
  0.3;                                    !- Value Until Time 1

OS:Schedule:Day,
  {8f88a444-c726-483d-8a5d-5e4630bdb556}, !- Handle
  Medium Office Electric Equipment Summer Design Day Schedule, !- Name
  ,                                       !- Schedule Type Limits Name
  ,                                       !- Interpolate to Timestep
  6,                                      !- Hour 1
  0,                                      !- Minute 1
  1,                                      !- Value Until Time 1
  24,                                     !- Hour 2
  0,                                      !- Minute 2
  0;                                      !- Value Until Time 2

OS:Schedule:Day,
  {2e7a1427-c796-4cc7-90af-c2da24ceecd2}, !- Handle
  Medium Office Electric Equipment Summer Design Day Schedule 1, !- Name
  {2fcf72f6-7ed0-4a26-aae8-475615291952}, !- Schedule Type Limits Name
  ,                                       !- Interpolate to Timestep
  6,                                      !- Hour 1
  0,                                      !- Minute 1
  1,                                      !- Value Until Time 1
  24,                                     !- Hour 2
  0,                                      !- Minute 2
  0;                                      !- Value Until Time 2

OS:Schedule:Day,
  {7a104d6e-bf88-4c45-a931-36ebeda818f7}, !- Handle
  Medium Office Electric Equipment Winter Design Day Schedule, !- Name
  ,                                       !- Schedule Type Limits Name
  ,                                       !- Interpolate to Timestep
  24,                                     !- Hour 1
  0,                                      !- Minute 1
  0;                                      !- Value Until Time 1

OS:Schedule:Day,
  {d535c313-a3f3-42c4-8e06-9f7a8f433738}, !- Handle
  Medium Office Electric Equipment Winter Design Day Schedule 1, !- Name
  {2fcf72f6-7ed0-4a26-aae8-475615291952}, !- Schedule Type Limits Name
  ,                                       !- Interpolate to Timestep
  24,                                     !- Hour 1
  0,                                      !- Minute 1
  0;                                      !- Value Until Time 1

OS:Schedule:Rule,
  {45c146d7-cf7e-4f08-892e-be8f31a18e61}, !- Handle
  Medium Office Electric Equipment Schedule Weekdays Rule, !- Name
  {19da2a40-20ad-46ea-bd8a-8a759aa055b9}, !- Schedule Ruleset Name
  1,                                      !- Rule Order
  {ed0d89fe-dee8-4584-b538-1618da2c408e}, !- Day Schedule Name
  ,                                       !- Apply Sunday
  Yes,                                    !- Apply Monday
  Yes,                                    !- Apply Tuesday
  Yes,                                    !- Apply Wednesday
  Yes,                                    !- Apply Thursday
  Yes;                                    !- Apply Friday

OS:Schedule:Day,
  {ed0d89fe-dee8-4584-b538-1618da2c408e}, !- Handle
  Medium Office Electric Equipment Weekdays Schedule, !- Name
  {2fcf72f6-7ed0-4a26-aae8-475615291952}, !- Schedule Type Limits Name
  ,                                       !- Interpolate to Timestep
  8,                                      !- Hour 1
  0,                                      !- Minute 1
  0.4,                                    !- Value Until Time 1
  12,                                     !- Hour 2
  0,                                      !- Minute 2
  0.9,                                    !- Value Until Time 2
  13,                                     !- Hour 3
  0,                                      !- Minute 3
  0.8,                                    !- Value Until Time 3
  17,                                     !- Hour 4
  0,                                      !- Minute 4
  0.9,                                    !- Value Until Time 4
  18,                                     !- Hour 5
  0,                                      !- Minute 5
  0.8,                                    !- Value Until Time 5
  20,                                     !- Hour 6
  0,                                      !- Minute 6
  0.6,                                    !- Value Until Time 6
  22,                                     !- Hour 7
  0,                                      !- Minute 7
  0.5,                                    !- Value Until Time 7
  24,                                     !- Hour 8
  0,                                      !- Minute 8
  0.4;                                    !- Value Until Time 8

OS:Schedule:Rule,
  {7b0e5dd6-5026-43d9-897f-617bb55bd695}, !- Handle
  Medium Office Electric Equipment Schedule Saturday Rule, !- Name
  {19da2a40-20ad-46ea-bd8a-8a759aa055b9}, !- Schedule Ruleset Name
  0,                                      !- Rule Order
  {91c8139d-f7a4-478c-9242-c9aa32fc1137}, !- Day Schedule Name
  ,                                       !- Apply Sunday
  ,                                       !- Apply Monday
  ,                                       !- Apply Tuesday
  ,                                       !- Apply Wednesday