
OS:Version,
  {316560d2-6647-4283-bdca-fdfa3b5fbba8}, !- Handle
  3.1.0;                                  !- Version Identifier

OS:ZoneHVAC:TerminalUnit:VariableRefrigerantFlow,
  {6b321fad-eec1-4d95-bc7d-1e7ec18f54bf}, !- Handle
  Zone HVAC Terminal Unit Variable Refrigerant Flow 1, !- Name
  {1c609529-5e92-4ae7-8b09-53006e44eb66}, !- Terminal Unit Availability schedule
  ,                                       !- Terminal Unit Air Inlet Node
  ,                                       !- Terminal Unit Air Outlet Node
  autosize,                               !- Supply Air Flow Rate During Cooling Operation {m3/s}
  autosize,                               !- Supply Air Flow Rate When No Cooling is Needed {m3/s}
  autosize,                               !- Supply Air Flow Rate During Heating Operation {m3/s}
  autosize,                               !- Supply Air Flow Rate When No Heating is Needed {m3/s}
  autosize,                               !- Outdoor Air Flow Rate During Cooling Operation {m3/s}
  autosize,                               !- Outdoor Air Flow Rate During Heating Operation {m3/s}
  autosize,                               !- Outdoor Air Flow Rate When No Cooling or Heating is Needed {m3/s}
  {1c609529-5e92-4ae7-8b09-53006e44eb66}, !- Supply Air Fan Operating Mode Schedule
  ,                                       !- Supply Air Fan placement
  {ed6257a6-24ab-4566-a60a-375fd89a805a}, !- Supply Air Fan
  ,                                       !- Outside Air Mixer
  {9a1aa970-62b7-4a86-aee4-58aaab463970}, !- Cooling Coil
  {59367138-e887-4a52-91f6-8f39e542ab08}, !- Heating Coil
  30,                                     !- Zone Terminal Unit On Parasitic Electric Energy Use {W}
  20,                                     !- Zone Terminal Unit Off Parasitic Electric Energy Use {W}
  1,                                      !- Rated Total Heating Capacity Sizing Ratio {W/W}
  ,                                       !- Availability Manager List Name
  ,                                       !- Design Specification ZoneHVAC Sizing Object Name
  ,                                       !- Supplemental Heating Coil Name
  Autosize,                               !- Maximum Supply Air Temperature from Supplemental Heater {C}
  21;                                     !- Maximum Outdoor Dry-Bulb Temperature for Supplemental Heater Operation {C}

OS:Schedule:Constant,
  {1c609529-5e92-4ae7-8b09-53006e44eb66}, !- Handle
  Fan Op Schedule,                        !- Name
  {6366dd7b-a323-43fe-9e38-ed06569e3609}, !- Schedule Type Limits Name
  1;                                      !- Value

OS:ScheduleTypeLimits,
  {6366dd7b-a323-43fe-9e38-ed06569e3609}, !- Handle
  OnOff,                                  !- Name
  0,                                      !- Lower Limit Value
  1,                                      !- Upper Limit Value
  Discrete,                               !- Numeric Type
  Availability;                           !- Unit Type

OS:Coil:Cooling:DX:VariableRefrigerantFlow,
  {9a1aa970-62b7-4a86-aee4-58aaab463970}, !- Handle
  Zone HVAC Terminal Unit Variable Refrigerant Flow 1 Cooling Coil, !- Name
  {1c609529-5e92-4ae7-8b09-53006e44eb66}, !- Availability Schedule
  autosize,                               !- Rated Total Cooling Capacity {W}
  autosize,                               !- Rated Sensible Heat Ratio
  autosize,                               !- Rated Air Flow Rate {m3/s}
  {411f9e2d-2d51-4594-a7b7-d713bca0c678}, !- Cooling Capacity Ratio Modifier Function of Temperature Curve
  {af6b20e5-1624-4029-ae4e-9ff91f32c606}; !- Cooling Capacity Modifier Curve Function of Flow Fraction

OS:Curve:Biquadratic,
  {411f9e2d-2d51-4594-a7b7-d713bca0c678}, !- Handle
  VRFTUCoolCapFT,                         !- Name
  0.0585884077803259,                     !- Coefficient1 Constant
  0.0587396532718384,                     !- Coefficient2 x
  -0.000210274979759697,                  !- Coefficient3 x**2
  0.0109370473889647,                     !- Coefficient4 y
  -0.0001219549,                          !- Coefficient5 y**2
  -0.0005246615,                          !- Coefficient6 x*y
  15,                                     !- Minimum Value of x
  23.89,                                  !- Maximum Value of x
  20,                                     !- Minimum Value of y
  43.33,                                  !- Maximum Value of y
  0.8083,                                 !- Minimum Curve Output
  1.2583;                                 !- Maximum Curve Output

OS:Curve:Quadratic,
  {af6b20e5-1624-4029-ae4e-9ff91f32c606}, !- Handle
  VRFACCoolCapFFF,                        !- Name
  0.8,                                    !- Coefficient1 Constant
  0.2,                                    !- Coefficient2 x
  0,                                      !- Coefficient3 x**2
  0.5,                                    !- Minimum Value of x
  1.5;                                    !- Maximum Value of x

OS:Coil:Heating:DX:VariableRefrigerantFlow,
  {59367138-e887-4a52-91f6-8f39e542ab08}, !- Handle
  Zone HVAC Terminal Unit Variable Refrigerant Flow 1 Heating Coil, !- Name
  {1c609529-5e92-4ae7-8b09-53006e44eb66}, !- Availability Schedule
  autosize,                               !- Rated Total Heating Capacity {W}
  autosize,                               !- Rated Air Flow Rate {m3/s}
  ,                                       !- Coil Air Inlet Node
  ,                                       !- Coil Air Outlet Node
  {352b168e-f348-4e0c-98a8-360a995c8401}, !- Heating Capacity Ratio Modifier Function of Temperature Curve
  {61d38d40-8803-418a-97e1-07fd5d399071}; !- Heating Capacity Modifier Function of Flow Fraction Curve

OS:Curve:Biquadratic,
  {352b168e-f348-4e0c-98a8-360a995c8401}, !- Handle
  Coil Heating DX Variable Refrigerant Flow 1 VRFTUHeatCAPFT, !- Name
  0.375443994956127,                      !- Coefficient1 Constant
  0.0668190645147821,                     !- Coefficient2 x
  -0.00194171026482001,                   !- Coefficient3 x**2
  0.0442618420640187,                     !- Coefficient4 y
  -0.0004009578,                          !- Coefficient5 y**2
  -0.0014819801,                          !- Coefficient6 x*y
  21.11,                                  !- Minimum Value of x
  27.22,                                  !- Maximum Value of x
  -15,                                    !- Minimum Value of y
  18.33,                                  !- Maximum Value of y
  0.6074,                                 !- Minimum Curve Output
  1;                                      !- Maximum Curve Output

OS:Curve:Quadratic,
  {61d38d40-8803-418a-97e1-07fd5d399071}, !- Handle
  Coil Heating DX Variable Refrigerant Flow 1 VRFACCoolCapFFF, !- Name
  0.8,                                    !- Coefficient1 Constant
  0.2,                                    !- Coefficient2 x
  0,                                      !- Coefficient3 x**2
  0.5,                                    !- Minimum Value of x
  1.5;                                    !- Maximum Value of x

OS:Fan:OnOff,
  {ed6257a6-24ab-4566-a60a-375fd89a805a}, !- Handle
  Supply Air Fan,                         !- Name
  {1c609529-5e92-4ae7-8b09-53006e44eb66}, !- Availability Schedule Name
  0.6,                                    !- Fan Total Efficiency
  300,                                    !- Pressure Rise {Pa}
  autosize,                               !- Maximum Flow Rate {m3/s}
  0.8,                                    !- Motor Efficiency
  1,                                      !- Motor In Airstream Fraction
  ,                                       !- Air Inlet Node Name
  ,                                       !- Air Outlet Node Name
  {5cc77388-dbb6-427f-a2ba-fb11af4132b1}, !- Fan Power Ratio Function of Speed Ratio Curve Name
  {fc8ac138-dd5e-42dd-b44d-72e4b36e6247}, !- Fan Efficiency Ratio Function of Speed Ratio Curve Name
  ;                                       !- End-Use Subcategory

OS:Curve:Exponent,
  {5cc77388-dbb6-427f-a2ba-fb11af4132b1}, !- Handle
  Fan On Off Power Curve,                 !- Name
  1,                                      !- Coefficient1 Constant
  0,                                      !- Coefficient2 Constant
  0,                                      !- Coefficient3 Constant
  0,                                      !- Minimum Value of x
  1,                                      !- Maximum Value of x
  ,                                       !- Minimum Curve Output
  ,                                       !- Maximum Curve Output
  ,                                       !- Input Unit Type for X
  ;                                       !- Output Unit Type

OS:Curve:Cubic,
  {fc8ac138-dd5e-42dd-b44d-72e4b36e6247}, !- Handle
  Fan On Off Efficiency Curve,            !- Name
  1,                                      !- Coefficient1 Constant
  0,                                      !- Coefficient2 x
  0,                                      !- Coefficient3 x**2
  0,                                      !- Coefficient4 x**3
  0,                                      !- Minimum Value of x
  1;                                      !- Maximum Value of x

