
OS:Version,
  {1acf31ae-da98-43fe-a60c-f0da801db4f5}, !- Handle
  1.4.0;                                  !- Version Identifier

OS:Construction,
  {5ceecb2b-5917-4653-a2c6-3b9c263703c9}, !- Handle
  ASHRAE 189.1-2009 AtticFloor ClimateZone 1-8, !- Name
  ,                                       !- Surface Rendering Name
  {26db9580-995a-4742-bee4-9bb5d64040c4}, !- Layer 1
  {35dfaddb-644f-486c-adff-12443a8a8d82}, !- Layer 2
  {26db9580-995a-4742-bee4-9bb5d64040c4}; !- Layer 3

OS:StandardsInformation:Construction,
  {eae9f129-5082-4ecd-a246-d287c62e1da3}, !- Handle
  {5ceecb2b-5917-4653-a2c6-3b9c263703c9}, !- Construction Name
  AtticFloor,                             !- Intended Surface Type
  WoodFramed;                             !- Standards Construction Type

OS:Material,
  {26db9580-995a-4742-bee4-9bb5d64040c4}, !- Handle
  1/2IN Gypsum,                           !- Name
  Smooth,                                 !- Roughness
  0.0127,                                 !- Thickness {m}
  0.16,                                   !- Conductivity {W/m-K}
  784.9,                                  !- Density {kg/m3}
  830.000000000001,                       !- Specific Heat {J/kg-K}
  0.9,                                    !- Thermal Absorptance
  0.4,                                    !- Solar Absorptance
  0.4;                                    !- Visible Absorptance

OS:Material,
  {35dfaddb-644f-486c-adff-12443a8a8d82}, !- Handle
  AtticFloor Insulation,                  !- Name
  MediumRough,                            !- Roughness
  0.2379,                                 !- Thickness {m}
  0.049,                                  !- Conductivity {W/m-K}
  265,                                    !- Density {kg/m3}
  836.800000000001,                       !- Specific Heat {J/kg-K}
  0.9,                                    !- Thermal Absorptance
  0.7,                                    !- Solar Absorptance
  0.7;                                    !- Visible Absorptance

OS:Construction,
  {2286e52d-24c2-47c4-9b5e-371d1ad5d3b5}, !- Handle
  ASHRAE 189.1-2009 ExtRoof IEAD ClimateZone 1, !- Name
  ,                                       !- Surface Rendering Name
  {ee435692-3e50-4e6a-9d47-262960ab09d3}, !- Layer 1
  {40075e05-0f41-4dc0-bd4e-6a57013fae5a}, !- Layer 2
  {953be9a5-e336-423f-903e-5d2d389cb8e4}; !- Layer 3

OS:StandardsInformation:Construction,
  {a2879ae6-a7b7-428c-b600-8dd131df77b0}, !- Handle
  {2286e52d-24c2-47c4-9b5e-371d1ad5d3b5}, !- Construction Name
  ExteriorRoof,                           !- Intended Surface Type
  IEAD;                                   !- Standards Construction Type

OS:Material,
  {ee435692-3e50-4e6a-9d47-262960ab09d3}, !- Handle
  Roof Membrane,                          !- Name
  VeryRough,                              !- Roughness
  0.0095,                                 !- Thickness {m}
  0.16,                                   !- Conductivity {W/m-K}
  1121.29,                                !- Density {kg/m3}
  1460,                                   !- Specific Heat {J/kg-K}
  0.9,                                    !- Thermal Absorptance
  0.7,                                    !- Solar Absorptance
  0.7;                                    !- Visible Absorptance

OS:Material,
  {40075e05-0f41-4dc0-bd4e-6a57013fae5a}, !- Handle
  Roof Insulation [18],                   !- Name
  MediumRough,                            !- Roughness
  0.1693,                                 !- Thickness {m}
  0.049,                                  !- Conductivity {W/m-K}
  265,                                    !- Density {kg/m3}
  836.800000000001,                       !- Specific Heat {J/kg-K}
  0.9,                                    !- Thermal Absorptance
  0.7,                                    !- Solar Absorptance
  0.7;                                    !- Visible Absorptance

OS:Material,
  {953be9a5-e336-423f-903e-5d2d389cb8e4}, !- Handle
  Metal Decking,                          !- Name
  MediumSmooth,                           !- Roughness
  0.0015,                                 !- Thickness {m}
  45.006,                                 !- Conductivity {W/m-K}
  7680,                                   !- Density {kg/m3}
  418.4,                                  !- Specific Heat {J/kg-K}
  0.9,                                    !- Thermal Absorptance
  0.6,                                    !- Solar Absorptance
  0.6;                                    !- Visible Absorptance

OS:Construction,
  {1b180217-7f96-4ac5-bef6-1054ff90e754}, !- Handle
  ASHRAE 189.1-2009 ExtRoof IEAD ClimateZone 2-5, !- Name
  ,                                       !- Surface Rendering Name
  {ee435692-3e50-4e6a-9d47-262960ab09d3}, !- Layer 1
  {79c6ef05-c570-44f9-b1e2-844f56dab5dd}, !- Layer 2
  {953be9a5-e336-423f-903e-5d2d389cb8e4}; !- Layer 3

OS:StandardsInformation:Construction,
  {626ca32c-cb05-4754-b2bf-f750d0a88f7d}, !- Handle
  {1b180217-7f96-4ac5-bef6-1054ff90e754}, !- Construction Name
  ExteriorRoof,                           !- Intended Surface Type
  IEAD;                                   !- Standards Construction Type

OS:Material,
  {79c6ef05-c570-44f9-b1e2-844f56dab5dd}, !- Handle
  Roof Insulation [21],                   !- Name
  MediumRough,                            !- Roughness
  0.2105,                                 !- Thickness {m}
  0.049,                                  !- Conductivity {W/m-K}
  265,                                    !- Density {kg/m3}
  836.800000000001,                       !- Specific Heat {J/kg-K}
  0.9,                                    !- Thermal Absorptance
  0.7,                                    !- Solar Absorptance
  0.7;                                    !- Visible Absorptance

OS:Construction,
  {bab2f754-23ca-4ff9-9100-dca8a6a3c152}, !- Handle
  ASHRAE 189.1-2009 ExtRoof IEAD ClimateZone 6, !- Name
  ,                                       !- Surface Rendering Name
  {ee435692-3e50-4e6a-9d47-262960ab09d3}, !- Layer 1
  {15772971-3dfb-4958-8509-39a5e636f74c}, !- Layer 2
  {953be9a5-e336-423f-903e-5d2d389cb8e4}; !- Layer 3

OS:StandardsInformation:Construction,
  {aaedcb28-e6f8-42f2-ab47-9330cf731e08}, !- Handle
  {bab2f754-23ca-4ff9-9100-dca8a6a3c152}, !- Construction Name
  ExteriorRoof,                           !- Intended Surface Type
  IEAD;                                   !- Standards Construction Type

OS:Material,
  {15772971-3dfb-4958-8509-39a5e636f74c}, !- Handle
  Roof Insulation [24],                   !- Name
  MediumRough,                            !- Roughness
  0.260100000000001,                      !- Thickness {m}
  0.049,                                  !- Conductivity {W/m-K}
  265,                                    !- Density {kg/m3}
  836.800000000001,                       !- Specific Heat {J/kg-K}
  0.9,                                    !- Thermal Absorptance
  0.7,                                    !- Solar Absorptance
  0.7;                                    !- Visible Absorptance

OS:Construction,
  {fa72da2d-08bc-489c-b6a6-8ae213a33311}, !- Handle
  ASHRAE 189.1-2009 ExtRoof IEAD ClimateZone 7-8, !- Name
  ,                                       !- Surface Rendering Name
  {ee435692-3e50-4e6a-9d47-262960ab09d3}, !- Layer 1
  {1564d48c-96d1-4b91-a183-70cdd67cb268}, !- Layer 2
  {953be9a5-e336-423f-903e-5d2d389cb8e4}; !- Layer 3

OS:StandardsInformation:Construction,
  {7aa4a343-7f6d-441e-8b4d-961e173ca839}, !- Handle
  {fa72da2d-08bc-489c-b6a6-8ae213a33311}, !- Construction Name
  ExteriorRoof,                           !- Intended Surface Type
  IEAD;                                   !- Standards Construction Type

OS:Material,
  {1564d48c-96d1-4b91-a183-70cdd67cb268}, !- Handle
  Roof Insulation [26],                   !- Name
  MediumRough,                            !- Roughness
  0.2941,                                 !- Thickness {m}
  0.049,                                  !- Conductivity {W/m-K}
  265,                                    !- Density {kg/m3}
  836.800000000001,                       !- Specific Heat {J/kg-K}
  0.9,                                    !- Thermal Absorptance
  0.7,                                    !- Solar Absorptance
  0.7;                                    !- Visible Absorptance

OS:Construction,
  {7179840c-0d9d-4b9f-9748-031979d3b137}, !- Handle
  ASHRAE 189.1-2009 ExtRoof Metal ClimateZone 1, !- Name
  ,                                       !- Surface Rendering Name
  {ba10e24b-5fa9-4591-b4ea-ab67a54d1a71}, !- Layer 1
  {64a615ce-0881-40dd-86bf-d841e434a77e}, !- Layer 2
  {953be9a5-e336-423f-903e-5d2d389cb8e4}; !- Layer 3

OS:StandardsInformation:Construction,
  {a1504d3a-a3d1-4e53-94fb-2bb41eafb0de}, !- Handle
  {7179840c-0d9d-4b9f-9748-031979d3b137}, !- Construction Name
  ExteriorRoof,                           !- Intended Surface Type
  Metal;                                  !- Standards Construction Type

OS:Material,
  {ba10e24b-5fa9-4591-b4ea-ab67a54d1a71}, !- Handle
  Metal Roofing,                          !- Name
  MediumSmooth,                           !- Roughness
  0.0015,                                 !- Thickness {m}
  45.006,                                 !- Conductivity {W/m-K}
  7680,                                   !- Density {kg/m3}
  418.4,                                  !- Specific Heat {J/kg-K}
  0.9,                                    !- Thermal Absorptance
  0.6,                                    !- Solar Absorptance
  0.6;                                    !- Visible Absorptance

OS:Material,
  {64a615ce-0881-40dd-86bf-d841e434a77e}, !- Handle
  Roof Insulation [19],                   !- Name
  MediumRough,                            !- Roughness
  0.1868,                                 !- Thickness {m}
  0.049,                                  !- Conductivity {W/m-K}
  265,                                    !- Density {kg/m3}
  836.800000000001,                       !- Specific Heat {J/kg-K}
  0.9,                                    !- Thermal Absorptance
  0.7,                                    !- Solar Absorptance
  0.7;                                    !- Visible Absorptance

OS:Construction,
  {64487521-65e0-4a1c-b97e-96753fb5bfcc}, !- Handle
  ASHRAE 189.1-2009 ExtRoof Metal ClimateZone 2-5, !- Name
  ,                                       !- Surface Rendering Name
  {ba10e24b-5fa9-4591-b4ea-ab67a54d1a71}, !- Layer 1
  {a74aff05-c8fa-4808-9bb0-83fcf7d6103e}, !- Layer 2
  {953be9a5-e336-423f-903e-5d2d389cb8e4}; !- Layer 3

OS:StandardsInformation:Construction,
  {2ebee86e-b314-4444-b18f-4fea51d66c3e}, !- Handle
  {64487521-65e0-4a1c-b97e-96753fb5bfcc}, !- Construction Name
  ExteriorRoof,                           !- Intended Surface Type
  Metal;                                  !- Standards Construction Type

OS:Material,
  {a74aff05-c8fa-4808-9bb0-83fcf7d6103e}, !- Handle
  Roof Insulation [22],                   !- Name
  MediumRough,                            !- Roughness
  0.2358,                                 !- Thickness {m}
  0.049,                                  !- Conductivity {W/m-K}
  265,                                    !- Density {kg/m3}
  836.800000000001,                       !- Specific Heat {J/kg-K}
  0.9,                                    !- Thermal Absorptance
  0.7,                                    !- Solar Absorptance
  0.7;                                    !- Visible Absorptance

OS:Construction,
  {3ba5fc7a-737a-4e67-8987-81e712ac57d2}, !- Handle
  ASHRAE 189.1-2009 ExtRoof Metal ClimateZone 6, !- Name
  ,                                       !- Surface Rendering Name
  {ba10e24b-5fa9-4591-b4ea-ab67a54d1a71}, !- Layer 1
  {da91e68f-8e2e-43bf-86c1-52edbfecf832}, !- Layer 2
  {953be9a5-e336-423f-903e-5d2d389cb8e4}; !- Layer 3

OS:StandardsInformation:Construction,
  {dfb3567c-1ede-4f45-bd79-2723831c78b9}, !- Handle
  {3ba5fc7a-737a-4e67-8987-81e712ac57d2}, !- Construction Name
  ExteriorRoof,                           !- Intended Surface Type
  Metal;                                  !- Standards Construction Type

OS:Material,
  {da91e68f-8e2e-43bf-86c1-52edbfecf832}, !- Handle
  Roof Insulation [25],                   !- Name
  MediumRough,                            !- Roughness
  0.263,                                  !- Thickness {m}
  0.049,                                  !- Conductivity {W/m-K}
  265,                                    !- Density {kg/m3}
  836.800000000001,                       !- Specific Heat {J/kg-K}
  0.9,                                    !- Thermal Absorptance
  0.7,                                    !- Solar Absorptance
  0.7;                                    !- Visible Absorptance

OS:Construction,
  {4cca3d18-fc91-4cc1-8bcd-a1e23abc8bdc}, !- Handle
  ASHRAE 189.1-2009 ExtRoof Metal ClimateZone 7-8, !- Name
  ,                                       !- Surface Rendering Name
  {ba10e24b-5fa9-4591-b4ea-ab67a54d1a71}, !- Layer 1
  {c650a55f-ccde-49ff-b53d-e818d93e73c0}, !- Layer 2
  {953be9a5-e336-423f-903e-5d2d389cb8e4}; !- Layer 3

OS:StandardsInformation:Construction,
  {e7f567ed-ecf7-420c-9468-2b1e166fe826}, !- Handle
  {4cca3d18-fc91-4cc1-8bcd-a1e23abc8bdc}, !- Construction Name
  ExteriorRoof,                           !- Intended Surface Type
  Metal;                                  !- Standards Construction Type

OS:Material,
  {c650a55f-ccde-49ff-b53d-e818d93e73c0}, !- Handle
  Roof Insulation [27],                   !- Name
  MediumRough,                            !- Roughness
  0.297000000000001,                      !- Thickness {m}
  0.049,                                  !- Conductivity {W/m-K}
  265,                                    !- Density {kg/m3}
  836.800000000001,                       !- Specific Heat {J/kg-K}
  0.9,                                    !- Thermal Absorptance
  0.7,                                    !- Solar Absorptance
  0.7;                                    !- Visible Absorptance

OS:Construction,
  {f5e12f6d-7f79-4f1c-8fc9-5b246a55c904}, !- Handle
  ASHRAE 189.1-2009 ExtWall Mass ClimateZone 1, !- Name
  ,                                       !- Surface Rendering Name
  {080c6a79-d99e-4965-9958-b5d9f06968f8}, !- Layer 1
  {fc6122ab-2b7b-45ac-b42e-8e08dd61647a}, !- Layer 2
  {23fa46f6-4038-4f36-8bfc-e31c6a8ff4a1}, !- Layer 3
  {26db9580-995a-4742-bee4-9bb5d64040c4}; !- Layer 4

OS:StandardsInformation:Construction,
  {e5324a6a-ceec-4f2b-a5fd-6c644092e26f}, !- Handle
  {f5e12f6d-7f79-4f1c-8fc9-5b246a55c904}, !- Construction Name
  ExteriorWall,                           !- Intended Surface Type
  Mass;                                   !- Standards Construction Type

OS:Material,
  {080c6a79-d99e-4965-9958-b5d9f06968f8}, !- Handle
  1IN Stucco,                             !- Name
  Smooth,                                 !- Roughness
  0.0253,                                 !- Thickness {m}
  0.691799999999999,                      !- Conductivity {W/m-K}
  1858,                                   !- Density {kg/m3}
  836.999999999999,                       !- Specific Heat {J/kg-K}
  0.9,                                    !- Thermal Absorptance
  0.92,                                   !- Solar Absorptance
  0.92;                                   !- Visible Absorptance

OS:Material,
  {fc6122ab-2b7b-45ac-b42e-8e08dd61647a}, !- Handle
  8IN Concrete HW,                        !- Name
  MediumRough,                            !- Roughness
  0.2033,                                 !- Thickness {m}
  1.72959999999999,                       !- Conductivity {W/m-K}
  2242.99999999999,                       !- Density {kg/m3}
  836.999999999999,                       !- Specific Heat {J/kg-K}
  0.9,                                    !- Thermal Absorptance
  0.65,                                   !- Solar Absorptance
  0.65;                                   !- Visible Absorptance

OS:Material,
  {23fa46f6-4038-4f36-8bfc-e31c6a8ff4a1}, !- Handle
  Wall Insulation [31],                   !- Name
  MediumRough,                            !- Roughness
  0.0337000000000001,                     !- Thickness {m}
  0.0432,                                 !- Conductivity {W/m-K}
  91,                                     !- Density {kg/m3}
  836.999999999999,                       !- Specific Heat {J/kg-K}
  0.9,                                    !- Thermal Absorptance
  0.5,                                    !- Solar Absorptance
  0.5;                                    !- Visible Absorptance

OS:Construction,
  {f8d243ae-f0d6-446e-ac39-f0f261d1253a}, !- Handle
  ASHRAE 189.1-2009 ExtWall Mass ClimateZone 2, !- Name
  ,                                       !- Surface Rendering Name
  {080c6a79-d99e-4965-9958-b5d9f06968f8}, !- Layer 1
  {fc6122ab-2b7b-45ac-b42e-8e08dd61647a}, !- Layer 2
  {9cd05ab5-2c85-4c85-92d8-036ef1d3a632}, !- Layer 3
  {26db9580-995a-4742-bee4-9bb5d64040c4}; !- Layer 4

OS:StandardsInformation:Construction,
  {9d2ae02f-75a2-4a87-b545-6db0aebf720d}, !- Handle
  {f8d243ae-f0d6-446e-ac39-f0f261d1253a}, !- Construction Name
  ExteriorWall,                           !- Intended Surface Type
  Mass;                                   !- Standards Construction Type

OS:Material,
  {9cd05ab5-2c85-4c85-92d8-036ef1d3a632}, !- Handle
  Wall Insulation [35],                   !- Name
  MediumRough,                            !- Roughness
  0.0452,                                 !- Thickness {m}
  0.0432,                                 !- Conductivity {W/m-K}
  91,                                     !- Density {kg/m3}
  836.999999999999,                       !- Specific Heat {J/kg-K}
  0.9,                                    !- Thermal Absorptance
  0.5,                                    !- Solar Absorptance
  0.5;                                    !- Visible Absorptance

OS:Construction,
  {27d04aeb-74bd-4f0c-a21c-c293674dbf0a}, !- Handle
  ASHRAE 189.1-2009 ExtWall Mass ClimateZone 3, !- Name
  ,                                       !- Surface Rendering Name
  {080c6a79-d99e-4965-9958-b5d9f06968f8}, !- Layer 1
  {fc6122ab-2b7b-45ac-b42e-8e08dd61647a}, !- Layer 2
  {d5b90ef1-f3cb-44f3-bde0-5c69a486e696}, !- Layer 3
  {26db9580-995a-4742-bee4-9bb5d64040c4}; !- Layer 4

OS:StandardsInformation:Construction,
  {43f4dc1b-684f-49eb-ae6f-5fd1ad916543}, !- Handle
  {27d04aeb-74bd-4f0c-a21c-c293674dbf0a}, !- Construction Name
  ExteriorWall,                           !- Intended Surface Type
  Mass;                                   !- Standards Construction Type

OS:Material,
  {d5b90ef1-f3cb-44f3-bde0-5c69a486e696}, !- Handle
  Wall Insulation [36],                   !- Name
  MediumRough,                            !- Roughness
  0.0565999999999999,                     !- Thickness {m}
  0.0432,                                 !- Conductivity {W/m-K}
  91,                                     !- Density {kg/m3}
  836.999999999999,                       !- Specific Heat {J/kg-K}
  0.9,                                    !- Thermal Absorptance
  0.5,                                    !- Solar Absorptance
  0.5;                                    !- Visible Absorptance

OS:Construction,
  {d174fa64-17ae-4725-8f0b-ad223f69b898}, !- Handle
  ASHRAE 189.1-2009 ExtWall Mass ClimateZone 4, !- Name
  ,                                       !- Surface Rendering Name
  {080c6a79-d99e-4965-9958-b5d9f06968f8}, !- Layer 1
  {fc6122ab-2b7b-45ac-b42e-8e08dd61647a}, !- Layer 2
  {aa42ee3d-48f1-4c3f-b9cf-4a8bf9091f81}, !- Layer 3
  {26db9580-995a-4742-bee4-9bb5d64040c4}; !- Layer 4

OS:StandardsInformation:Construction,
  {67cfd7d0-7e33-4123-9302-27c27170009e}, !- Handle
  {d174fa64-17ae-4725-8f0b-ad223f69b898}, !- Construction Name
  ExteriorWall,                           !- Intended Surface Type
  Mass;                                   !- Standards Construction Type

OS:Material,
  {aa42ee3d-48f1-4c3f-b9cf-4a8bf9091f81}, !- Handle
  Wall Insulation [37],                   !- Name
  MediumRough,                            !- Roughness
  0.0680999999999999,                     !- Thickness {m}
  0.0432,                                 !- Conductivity {W/m-K}
  91,                                     !- Density {kg/m3}
  836.999999999999,                       !- Specific Heat {J/kg-K}
  0.9,                                    !- Thermal Absorptance
  0.5,                                    !- Solar Absorptance
  0.5;                                    !- Visible Absorptance

OS:Construction,
  {32cbf0d4-8183-41db-afe3-91d20ece5642}, !- Handle
  ASHRAE 189.1-2009 ExtWall Mass ClimateZone 5, !- Name
  ,                                       !- Surface Rendering Name
  {080c6a79-d99e-4965-9958-b5d9f06968f8}, !- Layer 1
  {fc6122ab-2b7b-45ac-b42e-8e08dd61647a}, !- Layer 2
  {bab2cc55-ae34-4ddf-b726-30bf75f5f073}, !- Layer 3
  {26db9580-995a-4742-bee4-9bb5d64040c4}; !- Layer 4

OS:StandardsInformation:Construction,
  {0b9fd5ca-961b-4259-ade6-1b27256cf328}, !- Handle
  {32cbf0d4-8183-41db-afe3-91d20ece5642}, !- Construction Name
  ExteriorWall,                           !- Intended Surface Type
  Mass;                                   !- Standards Construction Type

OS:Material,
  {bab2cc55-ae34-4ddf-b726-30bf75f5f073}, !- Handle
  Wall Insulation [40],                   !- Name
  MediumRough,                            !- Roughness
  0.0793999999999999,                     !- Thickness {m}
  0.0432,                                 !- Conductivity {W/m-K}
  91,                                     !- Density {kg/m3}
  836.999999999999,                       !- Specific Heat {J/kg-K}
  0.9,                                    !- Thermal Absorptance
  0.5,                                    !- Solar Absorptance
  0.5;                                    !- Visible Absorptance

OS:Construction,
  {541c8406-5121-4bcb-aa2a-279cca271e44}, !- Handle
  ASHRAE 189.1-2009 ExtWall Mass ClimateZone 6, !- Name
  ,                                       !- Surface Rendering Name
  {080c6a79-d99e-4965-9958-b5d9f06968f8}, !- Layer 1
  {fc6122ab-2b7b-45ac-b42e-8e08dd61647a}, !- Layer 2
  {9cc5978f-40d7-4a46-ab2f-96a26827a642}, !- Layer 3
  {26db9580-995a-4742-bee4-9bb5d64040c4}; !- Layer 4

OS:StandardsInformation:Construction,
  {9128d53b-adc4-4b41-adc4-dd6d4b425627}, !- Handle
  {541c8406-5121-4bcb-aa2a-279cca271e44}, !- Construction Name
  ExteriorWall,                           !- Intended Surface Type
  Mass;                                   !- Standards Construction Type

OS:Material,
  {9cc5978f-40d7-4a46-ab2f-96a26827a642}, !- Handle
  Wall Insulation [42],                   !- Name
  MediumRough,                            !- Roughness
  0.0913999999999999,                     !- Thickness {m}
  0.0432,                                 !- Conductivity {W/m-K}
  91,                                     !- Density {kg/m3}
  836.999999999999,                       !- Specific Heat {J/kg-K}
  0.9,                                    !- Thermal Absorptance
  0.5,                                    !- Solar Absorptance
  0.5;                                    !- Visible Absorptance

OS:Construction,
  {8ebcff34-fc7c-426e-8c20-d7898d5e8397}, !- Handle
  ASHRAE 189.1-2009 ExtWall Mass ClimateZone 7-8, !- Name
  ,                                       !- Surface Rendering Name
  {080c6a79-d99e-4965-9958-b5d9f06968f8}, !- Layer 1
  {fc6122ab-2b7b-45ac-b42e-8e08dd61647a}, !- Layer 2
  {c846ae4d-831d-450a-88a5-cfd9b3d3e277}, !- Layer 3
  {26db9580-995a-4742-bee4-9bb5d64040c4}; !- Layer 4

OS:StandardsInformation:Construction,
  {32f525c7-1f94-4a9b-b153-75b6ab1c1fd1}, !- Handle
  {8ebcff34-fc7c-426e-8c20-d7898d5e8397}, !- Construction Name
  ExteriorWall,                           !- Intended Surface Type
  Mass;                                   !- Standards Construction Type

OS:Material,
  {c846ae4d-831d-450a-88a5-cfd9b3d3e277}, !- Handle
  Wall Insulation [44],                   !- Name
  MediumRough,                            !- Roughness
  0.1104,                                 !- Thickness {m}
  0.0432,                                 !- Conductivity {W/m-K}
  91,                                     !- Density {kg/m3}
  836.999999999999,                       !- Specific Heat {J/kg-K}
  0.9,                                    !- Thermal Absorptance
  0.5,                                    !- Solar Absorptance
  0.5;                                    !- Visible Absorptance

OS:Construction,
  {6937d9e2-35e5-4539-9b37-2d98458a6c0c}, !- Handle
  ASHRAE 189.1-2009 ExtWall Mass ClimateZone alt-res 1, !- Name
  ,                                       !- Surface Rendering Name
  {080c6a79-d99e-4965-9958-b5d9f06968f8}, !- Layer 1
  {fc6122ab-2b7b-45ac-b42e-8e08dd61647a}, !- Layer 2
  {9cd05ab5-2c85-4c85-92d8-036ef1d3a632}, !- Layer 3
  {26db9580-995a-4742-bee4-9bb5d64040c4}; !- Layer 4

OS:StandardsInformation:Construction,
  {17181835-e273-499b-b0dd-56dd6aac960c}, !- Handle
  {6937d9e2-35e5-4539-9b37-2d98458a6c0c}, !- Construction Name
  ExteriorWall,                           !- Intended Surface Type
  Mass;                                   !- Standards Construction Type

OS:Construction,
  {4c557d1d-ac5e-4490-bd37-d69c2b9c8bab}, !- Handle
  ASHRAE 189.1-2009 ExtWall Mass ClimateZone alt-res 2, !- Name
  ,                                       !- Surface Rendering Name
  {080c6a79-d99e-4965-9958-b5d9f06968f8}, !- Layer 1
  {fc6122ab-2b7b-45ac-b42e-8e08dd61647a}, !- Layer 2
  {d5b90ef1-f3cb-44f3-bde0-5c69a486e696}, !- Layer 3
  {26db9580-995a-4742-bee4-9bb5d64040c4}; !- Layer 4

OS:StandardsInformation:Construction,
  {991f2d37-5f38-4c84-a207-f488e1bb1f05}, !- Handle
  {4c557d1d-ac5e-4490-bd37-d69c2b9c8bab}, !- Construction Name
  ExteriorWall,                           !- Intended Surface Type
  Mass;                                   !- Standards Construction Type

OS:Construction,
  {0fbde274-e1eb-493b-8cd5-b3b929adb8cc}, !- Handle
  ASHRAE 189.1-2009 ExtWall Mass ClimateZone alt-res 3, !- Name
  ,                                       !- Surface Rendering Name
  {080c6a79-d99e-4965-9958-b5d9f06968f8}, !- Layer 1
  {fc6122ab-2b7b-45ac-b42e-8e08dd61647a}, !- Layer 2
  {aa42ee3d-48f1-4c3f-b9cf-4a8bf9091f81}, !- Layer 3
  {26db9580-995a-4742-bee4-9bb5d64040c4}; !- Layer 4

OS:StandardsInformation:Construction,
  {5136f853-4ebb-49d3-b2eb-6dae19d7eea1}, !- Handle
  {0fbde274-e1eb-493b-8cd5-b3b929adb8cc}, !- Construction Name
  ExteriorWall,                           !- Intended Surface Type
  Mass;                                   !- Standards Construction Type

OS:Construction,
  {92a596dc-0f12-4773-a3c9-21b6f456768f}, !- Handle
  ASHRAE 189.1-2009 ExtWall Mass ClimateZone alt-res 4, !- Name
  ,                                       !- Surface Rendering Name
  {080c6a79-d99e-4965-9958-b5d9f06968f8}, !- Layer 1
  {fc6122ab-2b7b-45ac-b42e-8e08dd61647a}, !- Layer 2
  {bab2cc55-ae34-4ddf-b726-30bf75f5f073}, !- Layer 3
  {26db9580-995a-4742-bee4-9bb5d64040c4}; !- Layer 4

OS:StandardsInformation:Construction,
  {62820010-1af5-411a-b36d-777429933bf1}, !- Handle
  {92a596dc-0f12-4773-a3c9-21b6f456768f}, !- Construction Name
  ExteriorWall,                           !- Intended Surface Type
  Mass;                                   !- Standards Construction Type

OS:Construction,
  {9a023658-f50c-46ba-b94c-daa0f9c62f72}, !- Handle
  ASHRAE 189.1-2009 ExtWall Mass ClimateZone alt-res 5, !- Name
  ,                                       !- Surface Rendering Name
  {080c6a79-d99e-4965-9958-b5d9f06968f8}, !- Layer 1
  {fc6122ab-2b7b-45ac-b42e-8e08dd61647a}, !- Layer 2
  {9cc5978f-40d7-4a46-ab2f-96a26827a642}, !- Layer 3
  {26db9580-995a-4742-bee4-9bb5d64040c4}; !- Layer 4

OS:StandardsInformation:Construction,
  {cdfedf6f-6bbe-4a7a-8d3b-f112e2ed8172}, !- Handle
  {9a023658-f50c-46ba-b94c-daa0f9c62f72}, !- Construction Name
  ExteriorWall,                           !- Intended Surface Type
  Mass;                                   !- Standards Construction Type

OS:Construction,
  {0f778110-bde8-43d5-8be0-58cff445b1c6}, !- Handle
  ASHRAE 189.1-2009 ExtWall Mass ClimateZone alt-res 6, !- Name
  ,                                       !- Surface Rendering Name
  {080c6a79-d99e-4965-9958-b5d9f06968f8}, !- Layer 1
  {fc6122ab-2b7b-45ac-b42e-8e08dd61647a}, !- Layer 2
  {c846ae4d-831d-450a-88a5-cfd9b3d3e277}, !- Layer 3
  {26db9580-995a-4742-bee4-9bb5d64040c4}; !- Layer 4

OS:StandardsInformation:Construction,
  {32530b9c-a9b0-4525-834b-366950f1c40f}, !- Handle
  {0f778110-bde8-43d5-8be0-58cff445b1c6}, !- Construction Name
  ExteriorWall,                           !- Intended Surface Type
  Mass;                                   !- Standards Construction Type

OS:Construction,
  {bca805a2-c60e-41f4-8da2-2ab20e2baeec}, !- Handle
  ASHRAE 189.1-2009 ExtWall Mass ClimateZone alt-res 7, !- Name
  ,                                       !- Surface Rendering Name
  {080c6a79-d99e-4965-9958-b5d9f06968f8}, !- Layer 1
  {fc6122ab-2b7b-45ac-b42e-8e08dd61647a}, !- Layer 2
  {c846ae4d-831d-450a-88a5-cfd9b3d3e277}, !- Layer 3
  {26db9580-995a-4742-bee4-9bb5d64040c4}; !- Layer 4

OS:StandardsInformation:Construction,
  {f4134e79-46fe-417b-a946-4f77518d390c}, !- Handle
  {bca805a2-c60e-41f4-8da2-2ab20e2baeec}, !- Construction Name
  ExteriorWall,                           !- Intended Surface Type