
OS:Version,
  {9ba02dbd-b183-4e7d-ad90-a24e8cdfa556}, !- Handle
  1.3.3;                                  !- Version Identifier

OS:Construction,
  {0ce05438-097f-4ac4-a808-6fd140b73fdb}, !- Handle
  ASHRAE 189.1-2009 AtticFloor ClimateZone 1-8, !- Name
  ,                                       !- Surface Rendering Name
  {c7e6e891-bf60-47a7-bdff-00ac7aa781bd}, !- Layer 1
  {ffc9bedd-86f2-4b04-9fda-bf568ec61047}, !- Layer 2
  {c7e6e891-bf60-47a7-bdff-00ac7aa781bd}; !- Layer 3

OS:StandardsInformation:Construction,
  {4d37690c-10c1-4c2f-83aa-adabd9901c09}, !- Handle
  {0ce05438-097f-4ac4-a808-6fd140b73fdb}, !- Construction Name
  AtticFloor,                             !- Intended Surface Type
  WoodFramed;                             !- Standards Construction Type

OS:Material,
  {c7e6e891-bf60-47a7-bdff-00ac7aa781bd}, !- Handle
  1/2IN Gypsum,                           !- Name
  Smooth,                                 !- Roughness
  0.0127,                                 !- Thickness {m}
  0.16,                                   !- Conductivity {W/m-K}
  784.9,                                  !- Density {kg/m3}
  830.000000000001,                       !- Specific Heat {J/kg-K}
  0.9,                                    !- Thermal Absorptance
  0.92,                                   !- Solar Absorptance
  0.92;                                   !- Visible Absorptance

OS:Material,
  {ffc9bedd-86f2-4b04-9fda-bf568ec61047}, !- Handle
  AtticFloor Insulation,                  !- Name
  MediumRough,                            !- Roughness
  0.2379,                                 !- Thickness {m}
  0.049,                                  !- Conductivity {W/m-K}
  265,                                    !- Density {kg/m3}
  836.800000000001,                       !- Specific Heat {J/kg-K}
  0.9,                                    !- Thermal Absorptance
  0.7,                                    !- Solar Absorptance
  0.7;                                    !- Visible Absorptance

OS:Construction,
  {97016d13-445e-4c3e-995c-68f8701f713e}, !- Handle
  ASHRAE 189.1-2009 ExtRoof IEAD ClimateZone 1, !- Name
  ,                                       !- Surface Rendering Name
  {dd00de4d-d1d1-428d-82e9-c01240c08a4c}, !- Layer 1
  {c0263ed3-dc35-493a-8ec9-be48f172f7c1}, !- Layer 2
  {316a00c7-28c4-466f-8331-128967ddbac6}; !- Layer 3

OS:StandardsInformation:Construction,
  {9f9e582e-4794-4e88-8454-903295f314d9}, !- Handle
  {97016d13-445e-4c3e-995c-68f8701f713e}, !- Construction Name
  ExteriorRoof,                           !- Intended Surface Type
  IEAD;                                   !- Standards Construction Type

OS:Material,
  {dd00de4d-d1d1-428d-82e9-c01240c08a4c}, !- Handle
  Roof Membrane,                          !- Name
  VeryRough,                              !- Roughness
  0.0095,                                 !- Thickness {m}
  0.16,                                   !- Conductivity {W/m-K}
  1121.29,                                !- Density {kg/m3}
  1460,                                   !- Specific Heat {J/kg-K}
  0.9,                                    !- Thermal Absorptance
  0.7,                                    !- Solar Absorptance
  0.7;                                    !- Visible Absorptance

OS:Material,
  {c0263ed3-dc35-493a-8ec9-be48f172f7c1}, !- Handle
  Roof Insulation [18],                   !- Name
  MediumRough,                            !- Roughness
  0.1693,                                 !- Thickness {m}
  0.049,                                  !- Conductivity {W/m-K}
  265,                                    !- Density {kg/m3}
  836.800000000001,                       !- Specific Heat {J/kg-K}
  0.9,                                    !- Thermal Absorptance
  0.7,                                    !- Solar Absorptance
  0.7;                                    !- Visible Absorptance

OS:Material,
  {316a00c7-28c4-466f-8331-128967ddbac6}, !- Handle
  Metal Decking,                          !- Name
  MediumSmooth,                           !- Roughness
  0.0015,                                 !- Thickness {m}
  45.006,                                 !- Conductivity {W/m-K}
  7680,                                   !- Density {kg/m3}
  418.4,                                  !- Specific Heat {J/kg-K}
  0.9,                                    !- Thermal Absorptance
  0.7,                                    !- Solar Absorptance
  0.3;                                    !- Visible Absorptance

OS:Construction,
  {a76e727f-553e-49a7-a187-f2ac3acc5e98}, !- Handle
  ASHRAE 189.1-2009 ExtRoof IEAD ClimateZone 2-5, !- Name
  ,                                       !- Surface Rendering Name
  {dd00de4d-d1d1-428d-82e9-c01240c08a4c}, !- Layer 1
  {342e4c53-4b23-441f-a454-ef6e2f2020a1}, !- Layer 2
  {316a00c7-28c4-466f-8331-128967ddbac6}; !- Layer 3

OS:StandardsInformation:Construction,
  {c25b51ff-e48b-4869-9e7d-1ebadf7f04c1}, !- Handle
  {a76e727f-553e-49a7-a187-f2ac3acc5e98}, !- Construction Name
  ExteriorRoof,                           !- Intended Surface Type
  IEAD;                                   !- Standards Construction Type

OS:Material,
  {342e4c53-4b23-441f-a454-ef6e2f2020a1}, !- Handle
  Roof Insulation [21],                   !- Name
  MediumRough,                            !- Roughness
  0.2105,                                 !- Thickness {m}
  0.049,                                  !- Conductivity {W/m-K}
  265,                                    !- Density {kg/m3}
  836.800000000001,                       !- Specific Heat {J/kg-K}
  0.9,                                    !- Thermal Absorptance
  0.7,                                    !- Solar Absorptance
  0.7;                                    !- Visible Absorptance

OS:Construction,
  {16855bf5-1dfc-448d-b9c6-e6eebc3f561b}, !- Handle
  ASHRAE 189.1-2009 ExtRoof IEAD ClimateZone 6, !- Name
  ,                                       !- Surface Rendering Name
  {dd00de4d-d1d1-428d-82e9-c01240c08a4c}, !- Layer 1
  {f988f8c7-862a-44c5-a018-e2024b164a1c}, !- Layer 2
  {316a00c7-28c4-466f-8331-128967ddbac6}; !- Layer 3

OS:StandardsInformation:Construction,
  {dd697d61-daf5-4928-b068-079ecf5b40f8}, !- Handle
  {16855bf5-1dfc-448d-b9c6-e6eebc3f561b}, !- Construction Name
  ExteriorRoof,                           !- Intended Surface Type
  IEAD;                                   !- Standards Construction Type

OS:Material,
  {f988f8c7-862a-44c5-a018-e2024b164a1c}, !- Handle
  Roof Insulation [24],                   !- Name
  MediumRough,                            !- Roughness
  0.260100000000001,                      !- Thickness {m}
  0.049,                                  !- Conductivity {W/m-K}
  265,                                    !- Density {kg/m3}
  836.800000000001,                       !- Specific Heat {J/kg-K}
  0.9,                                    !- Thermal Absorptance
  0.7,                                    !- Solar Absorptance
  0.7;                                    !- Visible Absorptance

OS:Construction,
  {ffe4015c-5798-47dc-b054-68875be0eafb}, !- Handle
  ASHRAE 189.1-2009 ExtRoof IEAD ClimateZone 7-8, !- Name
  ,                                       !- Surface Rendering Name
  {dd00de4d-d1d1-428d-82e9-c01240c08a4c}, !- Layer 1
  {9957e221-3694-44b5-bc45-7989c1b9b217}, !- Layer 2
  {316a00c7-28c4-466f-8331-128967ddbac6}; !- Layer 3

OS:StandardsInformation:Construction,
  {0e05db24-5771-4d81-b753-1f19760a1738}, !- Handle
  {ffe4015c-5798-47dc-b054-68875be0eafb}, !- Construction Name
  ExteriorRoof,                           !- Intended Surface Type
  IEAD;                                   !- Standards Construction Type

OS:Material,
  {9957e221-3694-44b5-bc45-7989c1b9b217}, !- Handle
  Roof Insulation [26],                   !- Name
  MediumRough,                            !- Roughness
  0.2941,                                 !- Thickness {m}
  0.049,                                  !- Conductivity {W/m-K}
  265,                                    !- Density {kg/m3}
  836.800000000001,                       !- Specific Heat {J/kg-K}
  0.9,                                    !- Thermal Absorptance
  0.7,                                    !- Solar Absorptance
  0.7;                                    !- Visible Absorptance

OS:Construction,
  {2e0e6cad-3027-4e6a-908e-694d0ea5b81f}, !- Handle
  ASHRAE 189.1-2009 ExtRoof Metal ClimateZone 1, !- Name
  ,                                       !- Surface Rendering Name
  {a6a78907-82de-45ce-b6fc-2b0dc64a5056}, !- Layer 1
  {67321faf-bf45-4ac0-a5d5-2a0f25f2f639}; !- Layer 2

OS:StandardsInformation:Construction,
  {44989446-ade2-4c11-96ef-748beb0d8dd4}, !- Handle
  {2e0e6cad-3027-4e6a-908e-694d0ea5b81f}, !- Construction Name
  ExteriorRoof,                           !- Intended Surface Type
  Metal;                                  !- Standards Construction Type

OS:Material,
  {a6a78907-82de-45ce-b6fc-2b0dc64a5056}, !- Handle
  Metal Roofing,                          !- Name
  MediumSmooth,                           !- Roughness
  0.0015,                                 !- Thickness {m}
  45.006,                                 !- Conductivity {W/m-K}
  7680,                                   !- Density {kg/m3}
  418.4,                                  !- Specific Heat {J/kg-K}
  0.9,                                    !- Thermal Absorptance
  0.3,                                    !- Solar Absorptance
  0.3;                                    !- Visible Absorptance

OS:Material,
  {67321faf-bf45-4ac0-a5d5-2a0f25f2f639}, !- Handle
  Roof Insulation [19],                   !- Name
  MediumRough,                            !- Roughness
  0.1868,                                 !- Thickness {m}
  0.049,                                  !- Conductivity {W/m-K}
  265,                                    !- Density {kg/m3}
  836.800000000001,                       !- Specific Heat {J/kg-K}
  0.9,                                    !- Thermal Absorptance
  0.7,                                    !- Solar Absorptance
  0.7;                                    !- Visible Absorptance

OS:Construction,
  {7ceeb122-dbca-4751-9bc5-e49903c78fff}, !- Handle
  ASHRAE 189.1-2009 ExtRoof Metal ClimateZone 2-5, !- Name
  ,                                       !- Surface Rendering Name
  {a6a78907-82de-45ce-b6fc-2b0dc64a5056}, !- Layer 1
  {231db588-0157-4355-be33-b9f9ef024bda}; !- Layer 2

OS:StandardsInformation:Construction,
  {b1bfd70d-5f2c-446f-8e3f-fcd8dfaaac89}, !- Handle
  {7ceeb122-dbca-4751-9bc5-e49903c78fff}, !- Construction Name
  ExteriorRoof,                           !- Intended Surface Type
  Metal;                                  !- Standards Construction Type

OS:Material,
  {231db588-0157-4355-be33-b9f9ef024bda}, !- Handle
  Roof Insulation [22],                   !- Name
  MediumRough,                            !- Roughness
  0.2358,                                 !- Thickness {m}
  0.049,                                  !- Conductivity {W/m-K}
  265,                                    !- Density {kg/m3}
  836.800000000001,                       !- Specific Heat {J/kg-K}
  0.9,                                    !- Thermal Absorptance
  0.7,                                    !- Solar Absorptance
  0.7;                                    !- Visible Absorptance

OS:Construction,
  {be36aca1-fcea-4bf4-ba5f-4a2e602f791c}, !- Handle
  ASHRAE 189.1-2009 ExtRoof Metal ClimateZone 6, !- Name
  ,                                       !- Surface Rendering Name
  {a6a78907-82de-45ce-b6fc-2b0dc64a5056}, !- Layer 1
  {577281a4-a7d0-469f-a526-ad83a750dd64}; !- Layer 2

OS:StandardsInformation:Construction,
  {e8d6b7c7-a334-4a62-a8b2-55efbf95c4ae}, !- Handle
  {be36aca1-fcea-4bf4-ba5f-4a2e602f791c}, !- Construction Name
  ExteriorRoof,                           !- Intended Surface Type
  Metal;                                  !- Standards Construction Type

OS:Material,
  {577281a4-a7d0-469f-a526-ad83a750dd64}, !- Handle
  Roof Insulation [25],                   !- Name
  MediumRough,                            !- Roughness
  0.263,                                  !- Thickness {m}
  0.049,                                  !- Conductivity {W/m-K}
  265,                                    !- Density {kg/m3}
  836.800000000001,                       !- Specific Heat {J/kg-K}
  0.9,                                    !- Thermal Absorptance
  0.7,                                    !- Solar Absorptance
  0.7;                                    !- Visible Absorptance

OS:Construction,
  {6fb7f9a8-41fb-4b92-a6a1-3af27f45f6c7}, !- Handle
  ASHRAE 189.1-2009 ExtRoof Metal ClimateZone 7-8, !- Name
  ,                                       !- Surface Rendering Name
  {a6a78907-82de-45ce-b6fc-2b0dc64a5056}, !- Layer 1
  {74a6faad-50e9-4853-a56d-e3172a99f167}; !- Layer 2

OS:StandardsInformation:Construction,
  {adaed559-ace3-4644-bdb6-1dec6d82939c}, !- Handle
  {6fb7f9a8-41fb-4b92-a6a1-3af27f45f6c7}, !- Construction Name
  ExteriorRoof,                           !- Intended Surface Type
  Metal;                                  !- Standards Construction Type

OS:Material,
  {74a6faad-50e9-4853-a56d-e3172a99f167}, !- Handle
  Roof Insulation [27],                   !- Name
  MediumRough,                            !- Roughness
  0.297000000000001,                      !- Thickness {m}
  0.049,                                  !- Conductivity {W/m-K}
  265,                                    !- Density {kg/m3}
  836.800000000001,                       !- Specific Heat {J/kg-K}
  0.9,                                    !- Thermal Absorptance
  0.7,                                    !- Solar Absorptance
  0.7;                                    !- Visible Absorptance

OS:Construction,
  {59110228-f623-435f-a68d-57dafcc5362f}, !- Handle
  ASHRAE 189.1-2009 ExtWall Mass ClimateZone 1, !- Name
  ,                                       !- Surface Rendering Name
  {ce13b396-9668-4937-9dd9-cf96dfdec5e5}, !- Layer 1
  {41edc195-af70-45ad-afcc-2921b171e9a5}, !- Layer 2
  {71c03f2c-d525-4b27-a87c-977e3cb92125}, !- Layer 3
  {c7e6e891-bf60-47a7-bdff-00ac7aa781bd}; !- Layer 4

OS:StandardsInformation:Construction,
  {d4fb4454-9d81-493b-86e1-d46c67e3abd0}, !- Handle
  {59110228-f623-435f-a68d-57dafcc5362f}, !- Construction Name
  ExteriorWall,                           !- Intended Surface Type
  Mass;                                   !- Standards Construction Type

OS:Material,
  {ce13b396-9668-4937-9dd9-cf96dfdec5e5}, !- Handle
  1IN Stucco,                             !- Name
  Smooth,                                 !- Roughness
  0.0253,                                 !- Thickness {m}
  0.691799999999999,                      !- Conductivity {W/m-K}
  1858,                                   !- Density {kg/m3}
  836.999999999999,                       !- Specific Heat {J/kg-K}
  0.9,                                    !- Thermal Absorptance
  0.92,                                   !- Solar Absorptance
  0.92;                                   !- Visible Absorptance

OS:Material,
  {41edc195-af70-45ad-afcc-2921b171e9a5}, !- Handle
  8IN Concrete HW,                        !- Name
  MediumRough,                            !- Roughness
  0.2033,                                 !- Thickness {m}
  1.72959999999999,                       !- Conductivity {W/m-K}
  2242.99999999999,                       !- Density {kg/m3}
  836.999999999999,                       !- Specific Heat {J/kg-K}
  0.9,                                    !- Thermal Absorptance
  0.65,                                   !- Solar Absorptance
  0.65;                                   !- Visible Absorptance

OS:Material,
  {71c03f2c-d525-4b27-a87c-977e3cb92125}, !- Handle
  Wall Insulation [31],                   !- Name
  MediumRough,                            !- Roughness
  0.0337000000000001,                     !- Thickness {m}
  0.0432,                                 !- Conductivity {W/m-K}
  91,                                     !- Density {kg/m3}
  836.999999999999,                       !- Specific Heat {J/kg-K}
  0.9,                                    !- Thermal Absorptance
  0.5,                                    !- Solar Absorptance
  0.5;                                    !- Visible Absorptance

OS:Construction,
  {2bafbbf5-44ef-4272-9bc3-e24460341ab0}, !- Handle
  ASHRAE 189.1-2009 ExtWall Mass ClimateZone 2, !- Name
  ,                                       !- Surface Rendering Name
  {ce13b396-9668-4937-9dd9-cf96dfdec5e5}, !- Layer 1
  {41edc195-af70-45ad-afcc-2921b171e9a5}, !- Layer 2
  {3cd0ee47-a0bd-45b2-9faf-a931eee56861}, !- Layer 3
  {c7e6e891-bf60-47a7-bdff-00ac7aa781bd}; !- Layer 4

OS:StandardsInformation:Construction,
  {86f6fb01-e9e3-4ff9-adba-0888aeed280b}, !- Handle
  {2bafbbf5-44ef-4272-9bc3-e24460341ab0}, !- Construction Name
  ExteriorWall,                           !- Intended Surface Type
  Mass;                                   !- Standards Construction Type

OS:Material,
  {3cd0ee47-a0bd-45b2-9faf-a931eee56861}, !- Handle
  Wall Insulation [35],                   !- Name
  MediumRough,                            !- Roughness
  0.0452,                                 !- Thickness {m}
  0.0432,                                 !- Conductivity {W/m-K}
  91,                                     !- Density {kg/m3}
  836.999999999999,                       !- Specific Heat {J/kg-K}
  0.9,                                    !- Thermal Absorptance
  0.5,                                    !- Solar Absorptance
  0.5;                                    !- Visible Absorptance

OS:Construction,
  {41d570f1-856f-4c93-8a8a-28994bc31ed1}, !- Handle
  ASHRAE 189.1-2009 ExtWall Mass ClimateZone 3, !- Name
  ,                                       !- Surface Rendering Name
  {ce13b396-9668-4937-9dd9-cf96dfdec5e5}, !- Layer 1
  {41edc195-af70-45ad-afcc-2921b171e9a5}, !- Layer 2
  {6c71cca2-aca9-4a9e-b90f-610fa438c6fa}, !- Layer 3
  {c7e6e891-bf60-47a7-bdff-00ac7aa781bd}; !- Layer 4

OS:StandardsInformation:Construction,
  {7b5f8036-852f-45c8-a94a-1cc827a94bd1}, !- Handle
  {41d570f1-856f-4c93-8a8a-28994bc31ed1}, !- Construction Name
  ExteriorWall,                           !- Intended Surface Type
  Mass;                                   !- Standards Construction Type

OS:Material,
  {6c71cca2-aca9-4a9e-b90f-610fa438c6fa}, !- Handle
  Wall Insulation [36],                   !- Name
  MediumRough,                            !- Roughness
  0.0565999999999999,                     !- Thickness {m}
  0.0432,                                 !- Conductivity {W/m-K}
  91,                                     !- Density {kg/m3}
  836.999999999999,                       !- Specific Heat {J/kg-K}
  0.9,                                    !- Thermal Absorptance
  0.5,                                    !- Solar Absorptance
  0.5;                                    !- Visible Absorptance

OS:Construction,
  {67471b7c-f383-4107-a33f-205ff5a7d792}, !- Handle
  ASHRAE 189.1-2009 ExtWall Mass ClimateZone 4, !- Name
  ,                                       !- Surface Rendering Name
  {ce13b396-9668-4937-9dd9-cf96dfdec5e5}, !- Layer 1
  {41edc195-af70-45ad-afcc-2921b171e9a5}, !- Layer 2
  {4f9386f7-fde9-43ed-b667-b657478078ac}, !- Layer 3
  {c7e6e891-bf60-47a7-bdff-00ac7aa781bd}; !- Layer 4

OS:StandardsInformation:Construction,
  {5549c04b-624e-43b7-a374-f69e74c67ee4}, !- Handle
  {67471b7c-f383-4107-a33f-205ff5a7d792}, !- Construction Name
  ExteriorWall,                           !- Intended Surface Type
  Mass;                                   !- Standards Construction Type

OS:Material,
  {4f9386f7-fde9-43ed-b667-b657478078ac}, !- Handle
  Wall Insulation [37],                   !- Name
  MediumRough,                            !- Roughness
  0.0680999999999999,                     !- Thickness {m}
  0.0432,                                 !- Conductivity {W/m-K}
  91,                                     !- Density {kg/m3}
  836.999999999999,                       !- Specific Heat {J/kg-K}
  0.9,                                    !- Thermal Absorptance
  0.5,                                    !- Solar Absorptance
  0.5;                                    !- Visible Absorptance

OS:Construction,
  {386122f6-95e3-43a8-8b8f-e143e8059255}, !- Handle
  ASHRAE 189.1-2009 ExtWall Mass ClimateZone 5, !- Name
  ,                                       !- Surface Rendering Name
  {ce13b396-9668-4937-9dd9-cf96dfdec5e5}, !- Layer 1
  {41edc195-af70-45ad-afcc-2921b171e9a5}, !- Layer 2
  {ff6083de-2dff-49e0-a2b6-44724fa19827}, !- Layer 3
  {c7e6e891-bf60-47a7-bdff-00ac7aa781bd}; !- Layer 4

OS:StandardsInformation:Construction,
  {1b72d7c3-522d-4a2c-9dd5-64efcf2bb4be}, !- Handle
  {386122f6-95e3-43a8-8b8f-e143e8059255}, !- Construction Name
  ExteriorWall,                           !- Intended Surface Type
  Mass;                                   !- Standards Construction Type

OS:Material,
  {ff6083de-2dff-49e0-a2b6-44724fa19827}, !- Handle
  Wall Insulation [40],                   !- Name
  MediumRough,                            !- Roughness
  0.0793999999999999,                     !- Thickness {m}
  0.0432,                                 !- Conductivity {W/m-K}
  91,                                     !- Density {kg/m3}
  836.999999999999,                       !- Specific Heat {J/kg-K}
  0.9,                                    !- Thermal Absorptance
  0.5,                                    !- Solar Absorptance
  0.5;                                    !- Visible Absorptance

OS:Construction,
  {ce05b712-2ccf-40e6-84a7-43f75974a4f9}, !- Handle
  ASHRAE 189.1-2009 ExtWall Mass ClimateZone 6, !- Name
  ,                                       !- Surface Rendering Name
  {ce13b396-9668-4937-9dd9-cf96dfdec5e5}, !- Layer 1
  {41edc195-af70-45ad-afcc-2921b171e9a5}, !- Layer 2
  {ceae170f-c17c-4ca5-a886-fad9d33e3177}, !- Layer 3
  {c7e6e891-bf60-47a7-bdff-00ac7aa781bd}; !- Layer 4

OS:StandardsInformation:Construction,
  {e5399d60-9bda-4677-9a9a-45aaeaa53d2e}, !- Handle
  {ce05b712-2ccf-40e6-84a7-43f75974a4f9}, !- Construction Name
  ExteriorWall,                           !- Intended Surface Type
  Mass;                                   !- Standards Construction Type

OS:Material,
  {ceae170f-c17c-4ca5-a886-fad9d33e3177}, !- Handle
  Wall Insulation [42],                   !- Name
  MediumRough,                            !- Roughness
  0.0913999999999999,                     !- Thickness {m}
  0.0432,                                 !- Conductivity {W/m-K}
  91,                                     !- Density {kg/m3}
  836.999999999999,                       !- Specific Heat {J/kg-K}
  0.9,                                    !- Thermal Absorptance
  0.5,                                    !- Solar Absorptance
  0.5;                                    !- Visible Absorptance

OS:Construction,
  {ca64d111-d00b-4bfc-bc28-a303e18d428c}, !- Handle
  ASHRAE 189.1-2009 ExtWall Mass ClimateZone 7-8, !- Name
  ,                                       !- Surface Rendering Name
  {ce13b396-9668-4937-9dd9-cf96dfdec5e5}, !- Layer 1
  {41edc195-af70-45ad-afcc-2921b171e9a5}, !- Layer 2
  {67fb8b75-5582-4a1a-aa3d-699b62d65fe0}, !- Layer 3
  {c7e6e891-bf60-47a7-bdff-00ac7aa781bd}; !- Layer 4

OS:StandardsInformation:Construction,
  {8e638f63-411e-446d-b08d-72b9f61bdd1f}, !- Handle
  {ca64d111-d00b-4bfc-bc28-a303e18d428c}, !- Construction Name
  ExteriorWall,                           !- Intended Surface Type
  Mass;                                   !- Standards Construction Type

OS:Material,
  {67fb8b75-5582-4a1a-aa3d-699b62d65fe0}, !- Handle
  Wall Insulation [44],                   !- Name
  MediumRough,                            !- Roughness
  0.1104,                                 !- Thickness {m}
  0.0432,                                 !- Conductivity {W/m-K}
  91,                                     !- Density {kg/m3}
  836.999999999999,                       !- Specific Heat {J/kg-K}
  0.9,                                    !- Thermal Absorptance
  0.5,                                    !- Solar Absorptance
  0.5;                                    !- Visible Absorptance

OS:Construction,
  {2f75dfd6-8569-4fb6-b267-18d7398f9cb9}, !- Handle
  ASHRAE 189.1-2009 ExtWall Mass ClimateZone alt-res 1, !- Name
  ,                                       !- Surface Rendering Name
  {ce13b396-9668-4937-9dd9-cf96dfdec5e5}, !- Layer 1
  {41edc195-af70-45ad-afcc-2921b171e9a5}, !- Layer 2
  {3cd0ee47-a0bd-45b2-9faf-a931eee56861}, !- Layer 3
  {c7e6e891-bf60-47a7-bdff-00ac7aa781bd}; !- Layer 4

OS:StandardsInformation:Construction,
  {d3dee31f-5d91-4823-8061-536eba8ddf2d}, !- Handle
  {2f75dfd6-8569-4fb6-b267-18d7398f9cb9}, !- Construction Name
  ExteriorWall,                           !- Intended Surface Type
  Mass;                                   !- Standards Construction Type

OS:Construction,
  {fbc75d6e-9155-4e5d-9447-1b53c154f498}, !- Handle
  ASHRAE 189.1-2009 ExtWall Mass ClimateZone alt-res 2, !- Name
  ,                                       !- Surface Rendering Name
  {ce13b396-9668-4937-9dd9-cf96dfdec5e5}, !- Layer 1
  {41edc195-af70-45ad-afcc-2921b171e9a5}, !- Layer 2
  {6c71cca2-aca9-4a9e-b90f-610fa438c6fa}, !- Layer 3
  {c7e6e891-bf60-47a7-bdff-00ac7aa781bd}; !- Layer 4

OS:StandardsInformation:Construction,
  {42cb3da8-7d0d-40af-bb42-eca4df65a21f}, !- Handle
  {fbc75d6e-9155-4e5d-9447-1b53c154f498}, !- Construction Name
  ExteriorWall,                           !- Intended Surface Type
  Mass;                                   !- Standards Construction Type

OS:Construction,
  {7167f1ee-2bcf-43c4-b078-863265eeabe3}, !- Handle
  ASHRAE 189.1-2009 ExtWall Mass ClimateZone alt-res 3, !- Name
  ,                                       !- Surface Rendering Name
  {ce13b396-9668-4937-9dd9-cf96dfdec5e5}, !- Layer 1
  {41edc195-af70-45ad-afcc-2921b171e9a5}, !- Layer 2
  {4f9386f7-fde9-43ed-b667-b657478078ac}, !- Layer 3
  {c7e6e891-bf60-47a7-bdff-00ac7aa781bd}; !- Layer 4

OS:StandardsInformation:Construction,
  {49158f67-838e-42b6-b63d-c4832aa6eeb5}, !- Handle
  {7167f1ee-2bcf-43c4-b078-863265eeabe3}, !- Construction Name
  ExteriorWall,                           !- Intended Surface Type
  Mass;                                   !- Standards Construction Type

OS:Construction,
  {10416589-ff25-4a5f-b899-02159d323533}, !- Handle
  ASHRAE 189.1-2009 ExtWall Mass ClimateZone alt-res 4, !- Name
  ,                                       !- Surface Rendering Name
  {ce13b396-9668-4937-9dd9-cf96dfdec5e5}, !- Layer 1
  {41edc195-af70-45ad-afcc-2921b171e9a5}, !- Layer 2
  {ff6083de-2dff-49e0-a2b6-44724fa19827}, !- Layer 3
  {c7e6e891-bf60-47a7-bdff-00ac7aa781bd}; !- Layer 4

OS:StandardsInformation:Construction,
  {f7b74eef-1d84-46e5-a046-4a1254de266c}, !- Handle
  {10416589-ff25-4a5f-b899-02159d323533}, !- Construction Name
  ExteriorWall,                           !- Intended Surface Type
  Mass;                                   !- Standards Construction Type

OS:Construction,
  {f73d38e3-285c-4b2b-a0c2-18ccae71f8d9}, !- Handle
  ASHRAE 189.1-2009 ExtWall Mass ClimateZone alt-res 5, !- Name
  ,                                       !- Surface Rendering Name
  {ce13b396-9668-4937-9dd9-cf96dfdec5e5}, !- Layer 1
  {41edc195-af70-45ad-afcc-2921b171e9a5}, !- Layer 2
  {ceae170f-c17c-4ca5-a886-fad9d33e3177}, !- Layer 3
  {c7e6e891-bf60-47a7-bdff-00ac7aa781bd}; !- Layer 4

OS:StandardsInformation:Construction,
  {c1de682c-cb2f-4662-becc-aac24c6ca3ee}, !- Handle
  {f73d38e3-285c-4b2b-a0c2-18ccae71f8d9}, !- Construction Name
  ExteriorWall,                           !- Intended Surface Type
  Mass;                                   !- Standards Construction Type

OS:Construction,
  {692cedf0-d404-4f36-acf1-439a7cac5f28}, !- Handle
  ASHRAE 189.1-2009 ExtWall Mass ClimateZone alt-res 6, !- Name
  ,                                       !- Surface Rendering Name
  {ce13b396-9668-4937-9dd9-cf96dfdec5e5}, !- Layer 1
  {41edc195-af70-45ad-afcc-2921b171e9a5}, !- Layer 2
  {67fb8b75-5582-4a1a-aa3d-699b62d65fe0}, !- Layer 3
  {c7e6e891-bf60-47a7-bdff-00ac7aa781bd}; !- Layer 4

OS:StandardsInformation:Construction,
  {c7ecd35d-6812-496c-8a76-0518cda0b0ca}, !- Handle
  {692cedf0-d404-4f36-acf1-439a7cac5f28}, !- Construction Name
  ExteriorWall,                           !- Intended Surface Type
  Mass;                                   !- Standards Construction Type

OS:Construction,
  {94679d4b-c693-4eaa-af50-9527f5d40a3d}, !- Handle
  ASHRAE 189.1-2009 ExtWall Mass ClimateZone alt-res 7, !- Name
  ,                                       !- Surface Rendering Name
  {ce13b396-9668-4937-9dd9-cf96dfdec5e5}, !- Layer 1
  {41edc195-af70-45ad-afcc-2921b171e9a5}, !- Layer 2
  {67fb8b75-5582-4a1a-aa3d-699b62d65fe0}, !- Layer 3
  {c7e6e891-bf60-47a7-bdff-00ac7aa781bd}; !- Layer 4

OS:StandardsInformation:Construction,
  {db0cf147-a2d4-49e9-96d5-82229ad88387}, !- Handle
  {94679d4b-c693-4eaa-af50-9527f5d40a3d}, !- Construction Name
  ExteriorWall,                           !- Intended Surface Type
  Mass;                                   !- Standards Construction Type

OS:Construction,
  {0e614604-01fd-48c6-8dcf-e7f9174bc71c}, !- Handle
  ASHRAE 189.1-2009 ExtWall Mass ClimateZone alt-res 8, !- Name