
OS:Version,
  {206035ff-4f74-466f-986c-73589fabad2d}, !- Handle
  1.2.3;                                  !- Version Identifier

OS:Construction,
  {1dd9fa76-5e34-44bf-9076-03718849c1e5}, !- Handle
  ASHRAE 189.1-2009 AtticFloor ClimateZone 1-8, !- Name
  ,                                       !- Surface Rendering Name
  {7946cabb-f09b-4524-beea-4afa7b51b44d}, !- Layer 1
  {767f2a85-6f22-4ff6-939f-c00d8b2776d1}, !- Layer 2
  {7946cabb-f09b-4524-beea-4afa7b51b44d}; !- Layer 3

OS:StandardsInformation:Construction,
  {2e8c4bf1-3cb4-421f-a7f8-fcd3852878b4}, !- Handle
  {1dd9fa76-5e34-44bf-9076-03718849c1e5}, !- Construction Name
  AtticFloor,                             !- Intended Surface Type
  ASHRAE 189.1-2009;                      !- Standards Construction Type

OS:Material,
  {7946cabb-f09b-4524-beea-4afa7b51b44d}, !- Handle
  1/2IN Gypsum,                           !- Name
  Smooth,                                 !- Roughness
  0.0127,                                 !- Thickness {m}
  0.16,                                   !- Conductivity {W/m-K}
  784.9,                                  !- Density {kg/m3}
  830.000000000001,                       !- Specific Heat {J/kg-K}
  0.9,                                    !- Thermal Absorptance
  0.92,                                   !- Solar Absorptance
  0.92;                                   !- Visible Absorptance

OS:Material,
  {767f2a85-6f22-4ff6-939f-c00d8b2776d1}, !- Handle
  AtticFloor Insulation,                  !- Name
  MediumRough,                            !- Roughness
  0.2379,                                 !- Thickness {m}
  0.049,                                  !- Conductivity {W/m-K}
  265,                                    !- Density {kg/m3}
  836.800000000001,                       !- Specific Heat {J/kg-K}
  0.9,                                    !- Thermal Absorptance
  0.7,                                    !- Solar Absorptance
  0.7;                                    !- Visible Absorptance

OS:Construction,
  {30017f74-5bca-4be9-ab88-022eb74f25cd}, !- Handle
  ASHRAE 189.1-2009 ExtRoof IEAD ClimateZone 1, !- Name
  ,                                       !- Surface Rendering Name
  {8398699f-edd3-4ea7-9588-d239db85d679}, !- Layer 1
  {ab1a7b9b-91f8-42d3-b2f7-2240bfe8863a}, !- Layer 2
  {a69606e8-2371-40e2-abcf-e51a069c6d3f}; !- Layer 3

OS:StandardsInformation:Construction,
  {9907ec3c-fb46-4074-9150-8943ba25aaf9}, !- Handle
  {30017f74-5bca-4be9-ab88-022eb74f25cd}, !- Construction Name
  ExteriorRoof,                           !- Intended Surface Type
  ASHRAE 189.1-2009;                      !- Standards Construction Type

OS:Material,
  {8398699f-edd3-4ea7-9588-d239db85d679}, !- Handle
  Roof Membrane,                          !- Name
  VeryRough,                              !- Roughness
  0.0095,                                 !- Thickness {m}
  0.16,                                   !- Conductivity {W/m-K}
  1121.29,                                !- Density {kg/m3}
  1460,                                   !- Specific Heat {J/kg-K}
  0.9,                                    !- Thermal Absorptance
  0.7,                                    !- Solar Absorptance
  0.7;                                    !- Visible Absorptance

OS:Material,
  {ab1a7b9b-91f8-42d3-b2f7-2240bfe8863a}, !- Handle
  Roof Insulation [18],                   !- Name
  MediumRough,                            !- Roughness
  0.1693,                                 !- Thickness {m}
  0.049,                                  !- Conductivity {W/m-K}
  265,                                    !- Density {kg/m3}
  836.800000000001,                       !- Specific Heat {J/kg-K}
  0.9,                                    !- Thermal Absorptance
  0.7,                                    !- Solar Absorptance
  0.7;                                    !- Visible Absorptance

OS:Material,
  {a69606e8-2371-40e2-abcf-e51a069c6d3f}, !- Handle
  Metal Decking,                          !- Name
  MediumSmooth,                           !- Roughness
  0.0015,                                 !- Thickness {m}
  45.006,                                 !- Conductivity {W/m-K}
  7680,                                   !- Density {kg/m3}
  418.4,                                  !- Specific Heat {J/kg-K}
  0.9,                                    !- Thermal Absorptance
  0.7,                                    !- Solar Absorptance
  0.3;                                    !- Visible Absorptance

OS:Construction,
  {4087771b-44fa-43d1-9d9c-0a009165f28a}, !- Handle
  ASHRAE 189.1-2009 ExtRoof IEAD ClimateZone 2-5, !- Name
  ,                                       !- Surface Rendering Name
  {8398699f-edd3-4ea7-9588-d239db85d679}, !- Layer 1
  {d4567679-48cf-4a2d-89a7-f6ca47243ceb}, !- Layer 2
  {a69606e8-2371-40e2-abcf-e51a069c6d3f}; !- Layer 3

OS:StandardsInformation:Construction,
  {57f16ed1-db82-447e-ab88-e0610ef6dafd}, !- Handle
  {4087771b-44fa-43d1-9d9c-0a009165f28a}, !- Construction Name
  ExteriorRoof,                           !- Intended Surface Type
  ASHRAE 189.1-2009;                      !- Standards Construction Type

OS:Material,
  {d4567679-48cf-4a2d-89a7-f6ca47243ceb}, !- Handle
  Roof Insulation [21],                   !- Name
  MediumRough,                            !- Roughness
  0.2105,                                 !- Thickness {m}
  0.049,                                  !- Conductivity {W/m-K}
  265,                                    !- Density {kg/m3}
  836.800000000001,                       !- Specific Heat {J/kg-K}
  0.9,                                    !- Thermal Absorptance
  0.7,                                    !- Solar Absorptance
  0.7;                                    !- Visible Absorptance

OS:Construction,
  {25112964-9f09-4b46-b51d-ddcc58a935f0}, !- Handle
  ASHRAE 189.1-2009 ExtRoof IEAD ClimateZone 6, !- Name
  ,                                       !- Surface Rendering Name
  {8398699f-edd3-4ea7-9588-d239db85d679}, !- Layer 1
  {211b2ade-73b7-43d3-aa4c-86f6917c4476}, !- Layer 2
  {a69606e8-2371-40e2-abcf-e51a069c6d3f}; !- Layer 3

OS:StandardsInformation:Construction,
  {226ac3f8-bbac-44b0-b54d-9b21be126b48}, !- Handle
  {25112964-9f09-4b46-b51d-ddcc58a935f0}, !- Construction Name
  ExteriorRoof,                           !- Intended Surface Type
  ASHRAE 189.1-2009;                      !- Standards Construction Type

OS:Material,
  {211b2ade-73b7-43d3-aa4c-86f6917c4476}, !- Handle
  Roof Insulation [24],                   !- Name
  MediumRough,                            !- Roughness
  0.260100000000001,                      !- Thickness {m}
  0.049,                                  !- Conductivity {W/m-K}
  265,                                    !- Density {kg/m3}
  836.800000000001,                       !- Specific Heat {J/kg-K}
  0.9,                                    !- Thermal Absorptance
  0.7,                                    !- Solar Absorptance
  0.7;                                    !- Visible Absorptance

OS:Construction,
  {f14bed1f-d557-47ca-9d6b-1297e789b2ad}, !- Handle
  ASHRAE 189.1-2009 ExtRoof IEAD ClimateZone 7-8, !- Name
  ,                                       !- Surface Rendering Name
  {8398699f-edd3-4ea7-9588-d239db85d679}, !- Layer 1
  {059ca686-5f03-4042-9173-e320923c7602}, !- Layer 2
  {a69606e8-2371-40e2-abcf-e51a069c6d3f}; !- Layer 3

OS:StandardsInformation:Construction,
  {5e7446d3-a65a-4a00-9fda-b84352c7ffbc}, !- Handle
  {f14bed1f-d557-47ca-9d6b-1297e789b2ad}, !- Construction Name
  ExteriorRoof,                           !- Intended Surface Type
  ASHRAE 189.1-2009;                      !- Standards Construction Type

OS:Material,
  {059ca686-5f03-4042-9173-e320923c7602}, !- Handle
  Roof Insulation [26],                   !- Name
  MediumRough,                            !- Roughness
  0.2941,                                 !- Thickness {m}
  0.049,                                  !- Conductivity {W/m-K}
  265,                                    !- Density {kg/m3}
  836.800000000001,                       !- Specific Heat {J/kg-K}
  0.9,                                    !- Thermal Absorptance
  0.7,                                    !- Solar Absorptance
  0.7;                                    !- Visible Absorptance

OS:Construction,
  {e07a5cf6-c9f9-4f92-94ae-69eebb6b4814}, !- Handle
  ASHRAE 189.1-2009 ExtRoof Metal ClimateZone 1, !- Name
  ,                                       !- Surface Rendering Name
  {58af24b3-f1f2-4aea-9776-ebbdea7924b6}, !- Layer 1
  {92b1254f-2234-4922-a1d6-7eb96b323121}; !- Layer 2

OS:StandardsInformation:Construction,
  {106bb71c-787a-45a5-b7d4-d826889d28c7}, !- Handle
  {e07a5cf6-c9f9-4f92-94ae-69eebb6b4814}, !- Construction Name
  ExteriorRoof,                           !- Intended Surface Type
  ASHRAE 189.1-2009;                      !- Standards Construction Type

OS:Material,
  {58af24b3-f1f2-4aea-9776-ebbdea7924b6}, !- Handle
  Metal Roofing,                          !- Name
  MediumSmooth,                           !- Roughness
  0.0015,                                 !- Thickness {m}
  45.006,                                 !- Conductivity {W/m-K}
  7680,                                   !- Density {kg/m3}
  418.4,                                  !- Specific Heat {J/kg-K}
  0.9,                                    !- Thermal Absorptance
  0.3,                                    !- Solar Absorptance
  0.3;                                    !- Visible Absorptance

OS:Material,
  {92b1254f-2234-4922-a1d6-7eb96b323121}, !- Handle
  Roof Insulation [19],                   !- Name
  MediumRough,                            !- Roughness
  0.1868,                                 !- Thickness {m}
  0.049,                                  !- Conductivity {W/m-K}
  265,                                    !- Density {kg/m3}
  836.800000000001,                       !- Specific Heat {J/kg-K}
  0.9,                                    !- Thermal Absorptance
  0.7,                                    !- Solar Absorptance
  0.7;                                    !- Visible Absorptance

OS:Construction,
  {17df63ef-75aa-4305-a08a-1c223cd026a5}, !- Handle
  ASHRAE 189.1-2009 ExtRoof Metal ClimateZone 2-5, !- Name
  ,                                       !- Surface Rendering Name
  {58af24b3-f1f2-4aea-9776-ebbdea7924b6}, !- Layer 1
  {dbf7b759-1c45-48df-824e-d9386ee14287}; !- Layer 2

OS:StandardsInformation:Construction,
  {1917fc63-9341-4241-8e2a-11c093f480fb}, !- Handle
  {17df63ef-75aa-4305-a08a-1c223cd026a5}, !- Construction Name
  ExteriorRoof,                           !- Intended Surface Type
  ASHRAE 189.1-2009;                      !- Standards Construction Type

OS:Material,
  {dbf7b759-1c45-48df-824e-d9386ee14287}, !- Handle
  Roof Insulation [22],                   !- Name
  MediumRough,                            !- Roughness
  0.2358,                                 !- Thickness {m}
  0.049,                                  !- Conductivity {W/m-K}
  265,                                    !- Density {kg/m3}
  836.800000000001,                       !- Specific Heat {J/kg-K}
  0.9,                                    !- Thermal Absorptance
  0.7,                                    !- Solar Absorptance
  0.7;                                    !- Visible Absorptance

OS:Construction,
  {b83004b1-4492-4b26-a8dc-064199247e20}, !- Handle
  ASHRAE 189.1-2009 ExtRoof Metal ClimateZone 6, !- Name
  ,                                       !- Surface Rendering Name
  {58af24b3-f1f2-4aea-9776-ebbdea7924b6}, !- Layer 1
  {4c0f46e1-b017-429b-9799-1a295b4e20c2}; !- Layer 2

OS:StandardsInformation:Construction,
  {a2d1f77b-d5a5-45eb-92f9-6323e1fdbc1c}, !- Handle
  {b83004b1-4492-4b26-a8dc-064199247e20}, !- Construction Name
  ExteriorRoof,                           !- Intended Surface Type
  ASHRAE 189.1-2009;                      !- Standards Construction Type

OS:Material,
  {4c0f46e1-b017-429b-9799-1a295b4e20c2}, !- Handle
  Roof Insulation [25],                   !- Name
  MediumRough,                            !- Roughness
  0.263,                                  !- Thickness {m}
  0.049,                                  !- Conductivity {W/m-K}
  265,                                    !- Density {kg/m3}
  836.800000000001,                       !- Specific Heat {J/kg-K}
  0.9,                                    !- Thermal Absorptance
  0.7,                                    !- Solar Absorptance
  0.7;                                    !- Visible Absorptance

OS:Construction,
  {c1743235-4882-486c-8323-389973d324ae}, !- Handle
  ASHRAE 189.1-2009 ExtRoof Metal ClimateZone 7-8, !- Name
  ,                                       !- Surface Rendering Name
  {58af24b3-f1f2-4aea-9776-ebbdea7924b6}, !- Layer 1
  {15671af5-bf15-4ab5-9d79-0715ddbf03e1}; !- Layer 2

OS:StandardsInformation:Construction,
  {20062f92-ac05-4ee1-802e-b4424f36195e}, !- Handle
  {c1743235-4882-486c-8323-389973d324ae}, !- Construction Name
  ExteriorRoof,                           !- Intended Surface Type
  ASHRAE 189.1-2009;                      !- Standards Construction Type

OS:Material,
  {15671af5-bf15-4ab5-9d79-0715ddbf03e1}, !- Handle
  Roof Insulation [27],                   !- Name
  MediumRough,                            !- Roughness
  0.297000000000001,                      !- Thickness {m}
  0.049,                                  !- Conductivity {W/m-K}
  265,                                    !- Density {kg/m3}
  836.800000000001,                       !- Specific Heat {J/kg-K}
  0.9,                                    !- Thermal Absorptance
  0.7,                                    !- Solar Absorptance
  0.7;                                    !- Visible Absorptance

OS:Construction,
  {472618ef-76dc-46ab-ba5a-20ed845b6e80}, !- Handle
  ASHRAE 189.1-2009 ExtWall Mass ClimateZone 1, !- Name
  ,                                       !- Surface Rendering Name
  {c62d17a7-da80-4ff5-802e-1ba3ab3a6632}, !- Layer 1
  {ff3aa157-7f47-47a0-8c05-cb37ecc28ccb}, !- Layer 2
  {44ee933b-a941-4381-8195-aa0f927aec6d}, !- Layer 3
  {7946cabb-f09b-4524-beea-4afa7b51b44d}; !- Layer 4

OS:StandardsInformation:Construction,
  {146e6db0-6806-4ee6-9ea3-7b9870ad1810}, !- Handle
  {472618ef-76dc-46ab-ba5a-20ed845b6e80}, !- Construction Name
  ExteriorWall,                           !- Intended Surface Type
  ASHRAE 189.1-2009;                      !- Standards Construction Type

OS:Material,
  {c62d17a7-da80-4ff5-802e-1ba3ab3a6632}, !- Handle
  1IN Stucco,                             !- Name
  Smooth,                                 !- Roughness
  0.0253,                                 !- Thickness {m}
  0.691799999999999,                      !- Conductivity {W/m-K}
  1858,                                   !- Density {kg/m3}
  836.999999999999,                       !- Specific Heat {J/kg-K}
  0.9,                                    !- Thermal Absorptance
  0.92,                                   !- Solar Absorptance
  0.92;                                   !- Visible Absorptance

OS:Material,
  {ff3aa157-7f47-47a0-8c05-cb37ecc28ccb}, !- Handle
  8IN Concrete HW,                        !- Name
  MediumRough,                            !- Roughness
  0.2033,                                 !- Thickness {m}
  1.72959999999999,                       !- Conductivity {W/m-K}
  2242.99999999999,                       !- Density {kg/m3}
  836.999999999999,                       !- Specific Heat {J/kg-K}
  0.9,                                    !- Thermal Absorptance
  0.65,                                   !- Solar Absorptance
  0.65;                                   !- Visible Absorptance

OS:Material,
  {44ee933b-a941-4381-8195-aa0f927aec6d}, !- Handle
  Wall Insulation [31],                   !- Name
  MediumRough,                            !- Roughness
  0.0337000000000001,                     !- Thickness {m}
  0.0432,                                 !- Conductivity {W/m-K}
  91,                                     !- Density {kg/m3}
  836.999999999999,                       !- Specific Heat {J/kg-K}
  0.9,                                    !- Thermal Absorptance
  0.5,                                    !- Solar Absorptance
  0.5;                                    !- Visible Absorptance

OS:Construction,
  {afe2fb11-cce2-445a-9083-79c931297e9c}, !- Handle
  ASHRAE 189.1-2009 ExtWall Mass ClimateZone 2, !- Name
  ,                                       !- Surface Rendering Name
  {c62d17a7-da80-4ff5-802e-1ba3ab3a6632}, !- Layer 1
  {ff3aa157-7f47-47a0-8c05-cb37ecc28ccb}, !- Layer 2
  {884ec790-6aa2-42df-809a-5e266c0cfcc1}, !- Layer 3
  {7946cabb-f09b-4524-beea-4afa7b51b44d}; !- Layer 4

OS:StandardsInformation:Construction,
  {1347611a-ae47-44db-aa9a-b62901b940fd}, !- Handle
  {afe2fb11-cce2-445a-9083-79c931297e9c}, !- Construction Name
  ExteriorWall,                           !- Intended Surface Type
  ASHRAE 189.1-2009;                      !- Standards Construction Type

OS:Material,
  {884ec790-6aa2-42df-809a-5e266c0cfcc1}, !- Handle
  Wall Insulation [35],                   !- Name
  MediumRough,                            !- Roughness
  0.0452,                                 !- Thickness {m}
  0.0432,                                 !- Conductivity {W/m-K}
  91,                                     !- Density {kg/m3}
  836.999999999999,                       !- Specific Heat {J/kg-K}
  0.9,                                    !- Thermal Absorptance
  0.5,                                    !- Solar Absorptance
  0.5;                                    !- Visible Absorptance

OS:Construction,
  {524a8ea0-24ed-4d85-b18c-6ea48393e4ce}, !- Handle
  ASHRAE 189.1-2009 ExtWall Mass ClimateZone 3, !- Name
  ,                                       !- Surface Rendering Name
  {c62d17a7-da80-4ff5-802e-1ba3ab3a6632}, !- Layer 1
  {ff3aa157-7f47-47a0-8c05-cb37ecc28ccb}, !- Layer 2
  {4a6424e0-2f5f-4291-ba41-c18485350caa}, !- Layer 3
  {7946cabb-f09b-4524-beea-4afa7b51b44d}; !- Layer 4

OS:StandardsInformation:Construction,
  {3554af53-c921-44a8-bf51-bceb0699311b}, !- Handle
  {524a8ea0-24ed-4d85-b18c-6ea48393e4ce}, !- Construction Name
  ExteriorWall,                           !- Intended Surface Type
  ASHRAE 189.1-2009;                      !- Standards Construction Type

OS:Material,
  {4a6424e0-2f5f-4291-ba41-c18485350caa}, !- Handle
  Wall Insulation [36],                   !- Name
  MediumRough,                            !- Roughness
  0.0565999999999999,                     !- Thickness {m}
  0.0432,                                 !- Conductivity {W/m-K}
  91,                                     !- Density {kg/m3}
  836.999999999999,                       !- Specific Heat {J/kg-K}
  0.9,                                    !- Thermal Absorptance
  0.5,                                    !- Solar Absorptance
  0.5;                                    !- Visible Absorptance

OS:Construction,
  {e106f078-0b68-46ab-9a61-820cf1d519e9}, !- Handle
  ASHRAE 189.1-2009 ExtWall Mass ClimateZone 4, !- Name
  ,                                       !- Surface Rendering Name
  {c62d17a7-da80-4ff5-802e-1ba3ab3a6632}, !- Layer 1
  {ff3aa157-7f47-47a0-8c05-cb37ecc28ccb}, !- Layer 2
  {2f24e634-7c8e-4a74-8beb-4d5fb4bbd94c}, !- Layer 3
  {7946cabb-f09b-4524-beea-4afa7b51b44d}; !- Layer 4

OS:StandardsInformation:Construction,
  {27fd9b87-cb36-4f01-ba47-06c26cd2b93d}, !- Handle
  {e106f078-0b68-46ab-9a61-820cf1d519e9}, !- Construction Name
  ExteriorWall,                           !- Intended Surface Type
  ASHRAE 189.1-2009;                      !- Standards Construction Type

OS:Material,
  {2f24e634-7c8e-4a74-8beb-4d5fb4bbd94c}, !- Handle
  Wall Insulation [37],                   !- Name
  MediumRough,                            !- Roughness
  0.0680999999999999,                     !- Thickness {m}
  0.0432,                                 !- Conductivity {W/m-K}
  91,                                     !- Density {kg/m3}
  836.999999999999,                       !- Specific Heat {J/kg-K}
  0.9,                                    !- Thermal Absorptance
  0.5,                                    !- Solar Absorptance
  0.5;                                    !- Visible Absorptance

OS:Construction,
  {183a3380-dfda-4a73-9811-92d0b7c879fe}, !- Handle
  ASHRAE 189.1-2009 ExtWall Mass ClimateZone 5, !- Name
  ,                                       !- Surface Rendering Name
  {c62d17a7-da80-4ff5-802e-1ba3ab3a6632}, !- Layer 1
  {ff3aa157-7f47-47a0-8c05-cb37ecc28ccb}, !- Layer 2
  {b6dd53f2-6cbc-4d9d-8aab-64f5e0020c47}, !- Layer 3
  {7946cabb-f09b-4524-beea-4afa7b51b44d}; !- Layer 4

OS:StandardsInformation:Construction,
  {c926c21b-02de-473e-8ac1-00949a4528f0}, !- Handle
  {183a3380-dfda-4a73-9811-92d0b7c879fe}, !- Construction Name
  ExteriorWall,                           !- Intended Surface Type
  ASHRAE 189.1-2009;                      !- Standards Construction Type

OS:Material,
  {b6dd53f2-6cbc-4d9d-8aab-64f5e0020c47}, !- Handle
  Wall Insulation [40],                   !- Name
  MediumRough,                            !- Roughness
  0.0793999999999999,                     !- Thickness {m}
  0.0432,                                 !- Conductivity {W/m-K}
  91,                                     !- Density {kg/m3}
  836.999999999999,                       !- Specific Heat {J/kg-K}
  0.9,                                    !- Thermal Absorptance
  0.5,                                    !- Solar Absorptance
  0.5;                                    !- Visible Absorptance

OS:Construction,
  {30e69432-e437-4edf-bea6-cbaf5aa8adc1}, !- Handle
  ASHRAE 189.1-2009 ExtWall Mass ClimateZone 6, !- Name
  ,                                       !- Surface Rendering Name
  {c62d17a7-da80-4ff5-802e-1ba3ab3a6632}, !- Layer 1
  {ff3aa157-7f47-47a0-8c05-cb37ecc28ccb}, !- Layer 2
  {5723e6b4-ee67-4411-8f56-bb19a7b781af}, !- Layer 3
  {7946cabb-f09b-4524-beea-4afa7b51b44d}; !- Layer 4

OS:StandardsInformation:Construction,
  {ea31e8f8-7b41-46dc-b8cc-d2249d2057c3}, !- Handle
  {30e69432-e437-4edf-bea6-cbaf5aa8adc1}, !- Construction Name
  ExteriorWall,                           !- Intended Surface Type
  ASHRAE 189.1-2009;                      !- Standards Construction Type

OS:Material,
  {5723e6b4-ee67-4411-8f56-bb19a7b781af}, !- Handle
  Wall Insulation [42],                   !- Name
  MediumRough,                            !- Roughness
  0.0913999999999999,                     !- Thickness {m}
  0.0432,                                 !- Conductivity {W/m-K}
  91,                                     !- Density {kg/m3}
  836.999999999999,                       !- Specific Heat {J/kg-K}
  0.9,                                    !- Thermal Absorptance
  0.5,                                    !- Solar Absorptance
  0.5;                                    !- Visible Absorptance

OS:Construction,
  {a75f4af0-7900-477d-8fa5-26bce88193be}, !- Handle
  ASHRAE 189.1-2009 ExtWall Mass ClimateZone 7-8, !- Name
  ,                                       !- Surface Rendering Name
  {c62d17a7-da80-4ff5-802e-1ba3ab3a6632}, !- Layer 1
  {ff3aa157-7f47-47a0-8c05-cb37ecc28ccb}, !- Layer 2
  {5f70ddd7-b7da-4fd6-931f-05644ba46f0d}, !- Layer 3
  {7946cabb-f09b-4524-beea-4afa7b51b44d}; !- Layer 4

OS:StandardsInformation:Construction,
  {997d4255-8de3-41f7-bd37-48fb926daa32}, !- Handle
  {a75f4af0-7900-477d-8fa5-26bce88193be}, !- Construction Name
  ExteriorWall,                           !- Intended Surface Type
  ASHRAE 189.1-2009;                      !- Standards Construction Type

OS:Material,
  {5f70ddd7-b7da-4fd6-931f-05644ba46f0d}, !- Handle
  Wall Insulation [44],                   !- Name
  MediumRough,                            !- Roughness
  0.1104,                                 !- Thickness {m}
  0.0432,                                 !- Conductivity {W/m-K}
  91,                                     !- Density {kg/m3}
  836.999999999999,                       !- Specific Heat {J/kg-K}
  0.9,                                    !- Thermal Absorptance
  0.5,                                    !- Solar Absorptance
  0.5;                                    !- Visible Absorptance

OS:Construction,
  {64c8d7dc-7777-44c9-bbdd-a120dcd83eb2}, !- Handle
  ASHRAE 189.1-2009 ExtWall Mass ClimateZone alt-res 1, !- Name
  ,                                       !- Surface Rendering Name
  {c62d17a7-da80-4ff5-802e-1ba3ab3a6632}, !- Layer 1
  {ff3aa157-7f47-47a0-8c05-cb37ecc28ccb}, !- Layer 2
  {884ec790-6aa2-42df-809a-5e266c0cfcc1}, !- Layer 3
  {7946cabb-f09b-4524-beea-4afa7b51b44d}; !- Layer 4

OS:StandardsInformation:Construction,
  {e663e097-bb5d-46be-aae1-d944ed851cd4}, !- Handle
  {64c8d7dc-7777-44c9-bbdd-a120dcd83eb2}, !- Construction Name
  ExteriorWall,                           !- Intended Surface Type
  ASHRAE 189.1-2009;                      !- Standards Construction Type

OS:Construction,
  {d9cb35e0-4de4-4dcd-9f1d-acd9ad8a8add}, !- Handle
  ASHRAE 189.1-2009 ExtWall Mass ClimateZone alt-res 2, !- Name
  ,                                       !- Surface Rendering Name
  {c62d17a7-da80-4ff5-802e-1ba3ab3a6632}, !- Layer 1
  {ff3aa157-7f47-47a0-8c05-cb37ecc28ccb}, !- Layer 2
  {4a6424e0-2f5f-4291-ba41-c18485350caa}, !- Layer 3
  {7946cabb-f09b-4524-beea-4afa7b51b44d}; !- Layer 4

OS:StandardsInformation:Construction,
  {3425353d-e302-454e-962f-786e4e68563e}, !- Handle
  {d9cb35e0-4de4-4dcd-9f1d-acd9ad8a8add}, !- Construction Name
  ExteriorWall,                           !- Intended Surface Type
  ASHRAE 189.1-2009;                      !- Standards Construction Type

OS:Construction,
  {b899d7fb-4de4-4824-ab86-4cd0cb3cc1a6}, !- Handle
  ASHRAE 189.1-2009 ExtWall Mass ClimateZone alt-res 3, !- Name
  ,                                       !- Surface Rendering Name
  {c62d17a7-da80-4ff5-802e-1ba3ab3a6632}, !- Layer 1
  {ff3aa157-7f47-47a0-8c05-cb37ecc28ccb}, !- Layer 2
  {2f24e634-7c8e-4a74-8beb-4d5fb4bbd94c}, !- Layer 3
  {7946cabb-f09b-4524-beea-4afa7b51b44d}; !- Layer 4

OS:StandardsInformation:Construction,
  {c473df34-e915-469c-9175-8c9c96f98a99}, !- Handle
  {b899d7fb-4de4-4824-ab86-4cd0cb3cc1a6}, !- Construction Name
  ExteriorWall,                           !- Intended Surface Type
  ASHRAE 189.1-2009;                      !- Standards Construction Type

OS:Construction,
  {f8ffa10e-9b14-48ca-8aa9-95912e33295a}, !- Handle
  ASHRAE 189.1-2009 ExtWall Mass ClimateZone alt-res 4, !- Name
  ,                                       !- Surface Rendering Name
  {c62d17a7-da80-4ff5-802e-1ba3ab3a6632}, !- Layer 1
  {ff3aa157-7f47-47a0-8c05-cb37ecc28ccb}, !- Layer 2
  {b6dd53f2-6cbc-4d9d-8aab-64f5e0020c47}, !- Layer 3
  {7946cabb-f09b-4524-beea-4afa7b51b44d}; !- Layer 4

OS:StandardsInformation:Construction,
  {30abc65c-98a4-419e-a143-7480a7934361}, !- Handle
  {f8ffa10e-9b14-48ca-8aa9-95912e33295a}, !- Construction Name
  ExteriorWall,                           !- Intended Surface Type
  ASHRAE 189.1-2009;                      !- Standards Construction Type

OS:Construction,
  {f977eb10-9c6a-401b-b325-620a481f8458}, !- Handle
  ASHRAE 189.1-2009 ExtWall Mass ClimateZone alt-res 5, !- Name
  ,                                       !- Surface Rendering Name
  {c62d17a7-da80-4ff5-802e-1ba3ab3a6632}, !- Layer 1
  {ff3aa157-7f47-47a0-8c05-cb37ecc28ccb}, !- Layer 2
  {5723e6b4-ee67-4411-8f56-bb19a7b781af}, !- Layer 3
  {7946cabb-f09b-4524-beea-4afa7b51b44d}; !- Layer 4

OS:StandardsInformation:Construction,
  {a8467ec8-7e0f-4183-8a3b-5c7fca8b855e}, !- Handle
  {f977eb10-9c6a-401b-b325-620a481f8458}, !- Construction Name
  ExteriorWall,                           !- Intended Surface Type
  ASHRAE 189.1-2009;                      !- Standards Construction Type

OS:Construction,
  {690b2480-5a18-42e4-be14-0bed3dc413c1}, !- Handle
  ASHRAE 189.1-2009 ExtWall Mass ClimateZone alt-res 6, !- Name
  ,                                       !- Surface Rendering Name
  {c62d17a7-da80-4ff5-802e-1ba3ab3a6632}, !- Layer 1
  {ff3aa157-7f47-47a0-8c05-cb37ecc28ccb}, !- Layer 2
  {5f70ddd7-b7da-4fd6-931f-05644ba46f0d}, !- Layer 3
  {7946cabb-f09b-4524-beea-4afa7b51b44d}; !- Layer 4

OS:StandardsInformation:Construction,
  {2cbbf23d-4271-415f-8ab7-3c8ff6085bac}, !- Handle
  {690b2480-5a18-42e4-be14-0bed3dc413c1}, !- Construction Name
  ExteriorWall,                           !- Intended Surface Type
  ASHRAE 189.1-2009;                      !- Standards Construction Type

OS:Construction,
  {9418f689-88c9-4733-a099-8490e780ff58}, !- Handle
  ASHRAE 189.1-2009 ExtWall Mass ClimateZone alt-res 7, !- Name
  ,                                       !- Surface Rendering Name
  {c62d17a7-da80-4ff5-802e-1ba3ab3a6632}, !- Layer 1
  {ff3aa157-7f47-47a0-8c05-cb37ecc28ccb}, !- Layer 2
  {5f70ddd7-b7da-4fd6-931f-05644ba46f0d}, !- Layer 3
  {7946cabb-f09b-4524-beea-4afa7b51b44d}; !- Layer 4

OS:StandardsInformation:Construction,
  {b4f83d95-390f-4186-a011-2b536f77c578}, !- Handle
  {9418f689-88c9-4733-a099-8490e780ff58}, !- Construction Name
  ExteriorWall,                           !- Intended Surface Type
  ASHRAE 189.1-2009;                      !- Standards Construction Type

OS:Construction,
  {dea8403b-7f3e-418b-a2ae-fd1e88130917}, !- Handle
  ASHRAE 189.1-2009 ExtWall Mass ClimateZone alt-res 8, !- Name