
OS:Version,
  {434ad80e-7c50-48b4-a1e0-35d2b6084b84}, !- Handle
  0.11.5;                                 !- Version Identifier

OS:Schedule:Constant,
  {a83bd5de-1732-4374-9362-83a44bcf8ac1}, !- Handle
  Always On Discrete,                     !- Name
  {443bbd9f-f748-44f0-a05b-24d9e190478e}, !- Schedule Type Limits Name
  1;                                      !- Value

OS:ScheduleTypeLimits,
  {443bbd9f-f748-44f0-a05b-24d9e190478e}, !- Handle
  Always On Discrete Limits,              !- Name
  0,                                      !- Lower Limit Value {BasedOnField A4}
  1,                                      !- Upper Limit Value {BasedOnField A4}
  Discrete,                               !- Numeric Type
  Availability;                           !- Unit Type

OS:Building,
  {58b09be1-e1d6-4f73-8df9-6bdf901c4458}, ! Handle
  Hospital,                               ! Name
  ,                                       ! Building Type
  -0,                                     ! North Axis
  ,                                       ! Nominal Floor to Floor Height
  {b2d13e1e-f6cd-4c7f-b545-7f79a7b40d62}, ! Space Type Name
  {7f771243-1499-4255-9d66-31ff8e34aa3c}, ! Default Construction Set Name
  ;                                       ! Default Schedule Set Name

OS:Construction,
  {74d4f1da-16db-487e-a429-97b9924ed990}, ! Handle
  000 AtticRoof ClimateZone 1-8,          ! Name
  {089f9f68-a0be-4246-af0a-5b500c6f84cb}, ! Surface Rendering Name
  {d920c3d0-b651-4e33-8e78-38125859be16}, ! Layer 1
  {d98e20cd-528f-4eb3-913a-e499c81f6a6f}; ! Layer 2

OS:Construction,
  {c83628eb-9996-4edf-aeca-2c9d1442089a}, ! Handle
  000 ExtSlabCarpet 4in ClimateZone 1-8,  ! Name
  {d98fc06a-1401-49d8-99ef-ce36775566f9}, ! Surface Rendering Name
  {47ca4c8b-493e-4ee9-841a-a8e883954725}, ! Layer 1
  {fc4e219b-7d6a-43e8-b7c1-31128fb8b05e}; ! Layer 2

OS:Construction,
  {3543a4b4-67d3-4e69-a785-908689f958d6}, ! Handle
  000 ExtSlabCarpet 8in ClimateZone 1-8,  ! Name
  {d8a5e3dc-951e-4861-bae6-bf9f26b2c42f}, ! Surface Rendering Name
  {688bb57a-a205-4bff-ba20-1991007df147}, ! Layer 1
  {fc4e219b-7d6a-43e8-b7c1-31128fb8b05e}; ! Layer 2

OS:Construction,
  {c389b84b-0ee0-4ea3-9526-9cf49a5965db}, ! Handle
  000 ExtSlab 4in ClimateZone 1-8,        ! Name
  {9f82bcd7-7f92-4683-93da-a2f33de4ef38}, ! Surface Rendering Name
  {47ca4c8b-493e-4ee9-841a-a8e883954725}; ! Layer 1

OS:Construction,
  {a4f47162-1a2f-43af-970c-40cbb76a6131}, ! Handle
  000 ExtSlab 8in ClimateZone 1-8,        ! Name
  {d808a667-7502-436b-a4ed-8dd098fba1dd}, ! Surface Rendering Name
  {688bb57a-a205-4bff-ba20-1991007df147}; ! Layer 1

OS:Construction,
  {659f90d0-be1d-42c2-882f-b82f1ca4e3f7}, ! Handle
  000 Exterior Door,                      ! Name
  {c44ff392-53ce-4a6a-81ba-8027f802f187}, ! Surface Rendering Name
  {ddfe49c3-5abd-49ea-8dc7-783cb4bf0876}, ! Layer 1
  {63e9781f-b22a-40e1-a815-4612a1892c41}; ! Layer 2

OS:Construction,
  {067f3dbc-4d2c-4a2d-af00-1de3575a2623}, ! Handle
  000 Exterior Floor,                     ! Name
  {95651f5d-cb59-4fea-9038-0c9e8fbe0f66}, ! Surface Rendering Name
  {c6272181-a1c5-4ed2-ad57-254a608401f2}, ! Layer 1
  {75da0c59-362b-44c9-be7e-a6d7b1f2e294}; ! Layer 2

OS:Construction,
  {e842c1fb-884c-4b8d-88d9-73501bfc7f3a}, ! Handle
  000 Exterior Roof,                      ! Name
  {b9eb5bf9-393b-4f67-9886-2fb58dfc5ef4}, ! Surface Rendering Name
  {b1a0ffe6-259c-43f2-9ead-585f90b116f2}, ! Layer 1
  {5eb6bc7d-d186-4e2c-bd75-5154ee428e9a}, ! Layer 2
  {79b0de22-27d2-482e-91ba-b318426c85f5}; ! Layer 3

OS:Construction,
  {b8eea1aa-8934-4517-a802-cae18d4456d9}, ! Handle
  000 Exterior Wall,                      ! Name
  {13de037a-b4c0-4c10-a4f3-ad8837eaec5f}, ! Surface Rendering Name
  {8013bb6e-269c-4cc6-bbf8-f404bc62e616}, ! Layer 1
  {75da0c59-362b-44c9-be7e-a6d7b1f2e294}, ! Layer 2
  {c6272181-a1c5-4ed2-ad57-254a608401f2}, ! Layer 3
  {77cb26f7-5d05-4e81-a041-e090e60d8622}, ! Layer 4
  {aac50110-94f8-476a-9132-c2980e5c7cb8}; ! Layer 5

OS:Construction,
  {c40c4180-daa1-400c-8f61-b09c6ef707df}, ! Handle
  000 Exterior Window,                    ! Name
  {ae0833fc-29bb-43c0-a7d9-33c38dc7b534}, ! Surface Rendering Name
  {540c7ce9-55ca-494c-9005-861eeeec9105}, ! Layer 1
  {95013a6a-921b-4a98-8961-65b643a405b1}, ! Layer 2
  {540c7ce9-55ca-494c-9005-861eeeec9105}; ! Layer 3

OS:Construction,
  {b37b8bbf-b6a4-4f3c-8401-e698793ab784}, ! Handle
  000 Interior Ceiling,                   ! Name
  {a9e97883-004d-4a9b-a922-208e744e978b}, ! Surface Rendering Name
  {b1a0ffe6-259c-43f2-9ead-585f90b116f2}, ! Layer 1
  {5eb6bc7d-d186-4e2c-bd75-5154ee428e9a}, ! Layer 2
  {79b0de22-27d2-482e-91ba-b318426c85f5}; ! Layer 3

OS:Construction,
  {0b9f246c-a19f-4db8-b759-c8c2ad7da352}, ! Handle
  000 Interior Door,                      ! Name
  {53cbc15e-3dec-4b93-af49-e9c09cfcf2b5}, ! Surface Rendering Name
  {a90ca898-a418-4c9f-9297-18a9d1ada87f}; ! Layer 1

OS:Construction,
  {610f38ec-9db2-4596-a1a8-737c3eb55659}, ! Handle
  000 Interior Floor,                     ! Name
  {19ef98fd-3dc1-4d7f-8d3b-de2b30d089c0}, ! Surface Rendering Name
  {79b0de22-27d2-482e-91ba-b318426c85f5}, ! Layer 1
  {5eb6bc7d-d186-4e2c-bd75-5154ee428e9a}, ! Layer 2
  {b1a0ffe6-259c-43f2-9ead-585f90b116f2}; ! Layer 3

OS:Construction,
  {da73f1f9-0e94-4a55-8c3d-df40b8fcd080}, ! Handle
  000 Interior Partition,                 ! Name
  {64e5e296-90e2-4482-b0ab-1977759340af}, ! Surface Rendering Name
  {a90ca898-a418-4c9f-9297-18a9d1ada87f}; ! Layer 1

OS:Construction,
  {9562d8a8-01f7-448c-a624-ac9822bb037e}, ! Handle
  000 Interior Wall,                      ! Name
  {4427c8d3-e102-474a-9b8a-92cea73380d8}, ! Surface Rendering Name
  {aac50110-94f8-476a-9132-c2980e5c7cb8}, ! Layer 1
  {77cb26f7-5d05-4e81-a041-e090e60d8622}, ! Layer 2
  {aac50110-94f8-476a-9132-c2980e5c7cb8}; ! Layer 3

OS:Construction,
  {99e0a041-1b11-4e0b-838f-4db2d99a1eaa}, ! Handle
  000 Interior Window,                    ! Name
  {6c24e7b4-e007-4a21-8cb1-6782b00fe991}, ! Surface Rendering Name
  {540c7ce9-55ca-494c-9005-861eeeec9105}; ! Layer 1

OS:Construction,
  {915a2dbb-a2d8-4f5d-8916-156045fc2b49}, ! Handle
  ASHRAE 189.1-2009 AtticFloor ClimateZone 1-8, ! Name
  {be537e66-5103-4311-bf1f-204e4fbd879e}, ! Surface Rendering Name
  {33ced566-3f14-4b14-9e29-e99bb100c13b}, ! Layer 1
  {96397cc8-1869-49dd-abb6-44111f070a2b}, ! Layer 2
  {33ced566-3f14-4b14-9e29-e99bb100c13b}; ! Layer 3

OS:Construction,
  {91dfefd5-9c56-4d84-9c17-a208bcfeeed6}, ! Handle
  ASHRAE 189.1-2009 ExtRoof IEAD ClimateZone 1, ! Name
  {6ce81144-dc20-46e9-af5e-a6c5beeb9713}, ! Surface Rendering Name
  {d920c3d0-b651-4e33-8e78-38125859be16}, ! Layer 1
  {c9bd87b2-e08d-4cd9-a591-9431263cf78a}, ! Layer 2
  {d98e20cd-528f-4eb3-913a-e499c81f6a6f}; ! Layer 3

OS:Construction,
  {ed38a3cf-47cb-46a1-a4dc-9cf763dddbb4}, ! Handle
  ASHRAE 189.1-2009 ExtRoof IEAD ClimateZone 2-5, ! Name
  {6767faff-7051-4fa9-9398-fe3b1da6acb9}, ! Surface Rendering Name
  {d920c3d0-b651-4e33-8e78-38125859be16}, ! Layer 1
  {a855456f-f03f-4576-9451-81475ce9cdb1}, ! Layer 2
  {d98e20cd-528f-4eb3-913a-e499c81f6a6f}; ! Layer 3

OS:Construction,
  {db1704cd-0268-437b-ac1e-b7dbbb61d5d9}, ! Handle
  ASHRAE 189.1-2009 ExtRoof IEAD ClimateZone 6, ! Name
  {11e09ccc-e01e-48d9-862d-102a6f785107}, ! Surface Rendering Name
  {d920c3d0-b651-4e33-8e78-38125859be16}, ! Layer 1
  {97ed93b3-8415-4f22-b5ac-40fa7321e01e}, ! Layer 2
  {d98e20cd-528f-4eb3-913a-e499c81f6a6f}; ! Layer 3

OS:Construction,
  {f0369a21-4760-4c46-93f7-b15e4a1def25}, ! Handle
  ASHRAE 189.1-2009 ExtRoof IEAD ClimateZone 7-8, ! Name
  {6e7a50cc-72f8-493a-9071-04d2ecb41bb4}, ! Surface Rendering Name
  {d920c3d0-b651-4e33-8e78-38125859be16}, ! Layer 1
  {0f3ba5d7-810a-4220-bd6c-842e926fee01}, ! Layer 2
  {d98e20cd-528f-4eb3-913a-e499c81f6a6f}; ! Layer 3

OS:Construction,
  {8eb9afa5-896b-4b05-90d7-0bb855984358}, ! Handle
  ASHRAE 189.1-2009 ExtRoof Metal ClimateZone 1, ! Name
  {62d3393a-ec77-4004-8311-1598b49ecd71}, ! Surface Rendering Name
  {3c99e7c5-049b-4e6f-822f-622537bc9a9d}, ! Layer 1
  {9e549c4f-3012-44e0-b7a3-a8a11a19bdd0}; ! Layer 2

OS:Construction,
  {ca6cf543-2138-447d-ad19-a2caebb122d8}, ! Handle
  ASHRAE 189.1-2009 ExtRoof Metal ClimateZone 2-5, ! Name
  {307a7633-8ed7-4977-a2c7-645dd88534ea}, ! Surface Rendering Name
  {3c99e7c5-049b-4e6f-822f-622537bc9a9d}, ! Layer 1
  {58c484a7-a2db-46cb-8652-846601018d4a}; ! Layer 2

OS:Construction,
  {6c998daf-e638-4090-b0c8-f25999a5a379}, ! Handle
  ASHRAE 189.1-2009 ExtRoof Metal ClimateZone 6, ! Name
  {105cb6f7-2036-4f74-b034-a7988168fd3d}, ! Surface Rendering Name
  {3c99e7c5-049b-4e6f-822f-622537bc9a9d}, ! Layer 1
  {0ca912e1-02d4-4d08-985c-d45fb1925161}; ! Layer 2

OS:Construction,
  {0282818c-253d-466a-aee4-941bf6787c9f}, ! Handle
  ASHRAE 189.1-2009 ExtRoof Metal ClimateZone 7-8, ! Name
  {37688f01-7b41-4773-be94-6fcb67fdd1e7}, ! Surface Rendering Name
  {3c99e7c5-049b-4e6f-822f-622537bc9a9d}, ! Layer 1
  {1ea7fe3f-83a9-485a-891b-25939a613d96}; ! Layer 2

OS:Construction,
  {bea9dedf-6086-4ab4-bbce-72e00c432fa6}, ! Handle
  ASHRAE 189.1-2009 ExtWall Mass ClimateZone 1, ! Name
  {1351fdda-116b-4059-b2a5-90a837831983}, ! Surface Rendering Name
  {a04cd85e-5760-499f-be13-ce1ca9e97064}, ! Layer 1
  {4a60668d-217a-483f-891e-a23950745f07}, ! Layer 2
  {f60edaaf-2954-4833-b141-f88bc2b6465e}, ! Layer 3
  {33ced566-3f14-4b14-9e29-e99bb100c13b}; ! Layer 4

OS:Construction,
  {9d81f8cb-fbbc-4f53-ae2a-d25001fdb435}, ! Handle
  ASHRAE 189.1-2009 ExtWall Mass ClimateZone 2, ! Name
  {8dcc06cc-2f16-4fa0-b344-8cc5a9bc9e46}, ! Surface Rendering Name
  {a04cd85e-5760-499f-be13-ce1ca9e97064}, ! Layer 1
  {4a60668d-217a-483f-891e-a23950745f07}, ! Layer 2
  {9ae8ee83-215a-44e9-9a92-c3ef04e49e2d}, ! Layer 3
  {33ced566-3f14-4b14-9e29-e99bb100c13b}; ! Layer 4

OS:Construction,
  {b1ee2213-4270-4eb5-9844-869b06bc5406}, ! Handle
  ASHRAE 189.1-2009 ExtWall Mass ClimateZone 3, ! Name
  {52cc6b31-21a3-426d-a52d-1ca97c7feddc}, ! Surface Rendering Name
  {a04cd85e-5760-499f-be13-ce1ca9e97064}, ! Layer 1
  {4a60668d-217a-483f-891e-a23950745f07}, ! Layer 2
  {d6def6f3-5969-4420-b005-bc9189283b5a}, ! Layer 3
  {33ced566-3f14-4b14-9e29-e99bb100c13b}; ! Layer 4

OS:Construction,
  {cc4258e3-3682-4fec-87b3-726837c0520b}, ! Handle
  ASHRAE 189.1-2009 ExtWall Mass ClimateZone 4, ! Name
  {abfb5bc9-01f3-4e07-b66f-ca53ae7669f7}, ! Surface Rendering Name
  {a04cd85e-5760-499f-be13-ce1ca9e97064}, ! Layer 1
  {4a60668d-217a-483f-891e-a23950745f07}, ! Layer 2
  {e02ff536-3c18-4fe9-b2a9-494eb0613479}, ! Layer 3
  {33ced566-3f14-4b14-9e29-e99bb100c13b}; ! Layer 4

OS:Construction,
  {077af4c6-80f9-42ca-bd20-652fb9831402}, ! Handle
  ASHRAE 189.1-2009 ExtWall Mass ClimateZone 5, ! Name
  {e8740bc3-1e3a-4581-8ccd-5049e19edb6b}, ! Surface Rendering Name
  {a04cd85e-5760-499f-be13-ce1ca9e97064}, ! Layer 1
  {4a60668d-217a-483f-891e-a23950745f07}, ! Layer 2
  {562407a5-5312-428e-bce7-fa349929b35f}, ! Layer 3
  {33ced566-3f14-4b14-9e29-e99bb100c13b}; ! Layer 4

OS:Construction,
  {1ad751d1-19af-4302-8b22-c8664fadb8fe}, ! Handle
  ASHRAE 189.1-2009 ExtWall Mass ClimateZone 6, ! Name
  {b7fb0e85-2eda-46af-b5d1-c32975567d70}, ! Surface Rendering Name
  {a04cd85e-5760-499f-be13-ce1ca9e97064}, ! Layer 1
  {4a60668d-217a-483f-891e-a23950745f07}, ! Layer 2
  {8e61fdb7-868d-420b-af6d-74aa7db30cb9}, ! Layer 3
  {33ced566-3f14-4b14-9e29-e99bb100c13b}; ! Layer 4

OS:Construction,
  {8374c8bf-52e3-487e-a334-215b8fc46e32}, ! Handle
  ASHRAE 189.1-2009 ExtWall Mass ClimateZone 7-8, ! Name
  {6ffdce42-99e7-4237-8bb4-f2a2c8af9676}, ! Surface Rendering Name
  {a04cd85e-5760-499f-be13-ce1ca9e97064}, ! Layer 1
  {4a60668d-217a-483f-891e-a23950745f07}, ! Layer 2
  {4327736a-6cc4-4ec8-a87f-1b1e9181a031}, ! Layer 3
  {33ced566-3f14-4b14-9e29-e99bb100c13b}; ! Layer 4

OS:Construction,
  {3083d75c-c198-43ba-9868-ab1b95ba5ef4}, ! Handle
  ASHRAE 189.1-2009 ExtWall Mass ClimateZone alt-res 1, ! Name
  {7f1fced5-07ef-40ef-b23d-72bc417aa2f4}, ! Surface Rendering Name
  {a04cd85e-5760-499f-be13-ce1ca9e97064}, ! Layer 1
  {4a60668d-217a-483f-891e-a23950745f07}, ! Layer 2
  {9ae8ee83-215a-44e9-9a92-c3ef04e49e2d}, ! Layer 3
  {33ced566-3f14-4b14-9e29-e99bb100c13b}; ! Layer 4

OS:Construction,
  {42b1900c-6f21-4aeb-afb3-a874d630233c}, ! Handle
  ASHRAE 189.1-2009 ExtWall Mass ClimateZone alt-res 2, ! Name
  {88c104e1-f01b-4203-9fdb-2615fd8eea14}, ! Surface Rendering Name
  {a04cd85e-5760-499f-be13-ce1ca9e97064}, ! Layer 1
  {4a60668d-217a-483f-891e-a23950745f07}, ! Layer 2
  {d6def6f3-5969-4420-b005-bc9189283b5a}, ! Layer 3
  {33ced566-3f14-4b14-9e29-e99bb100c13b}; ! Layer 4

OS:Construction,
  {b917a428-9950-421c-a320-0f8b69c38105}, ! Handle
  ASHRAE 189.1-2009 ExtWall Mass ClimateZone alt-res 3, ! Name
  {a02b87c3-bd4e-40cf-bff7-d8768f5e75cc}, ! Surface Rendering Name
  {a04cd85e-5760-499f-be13-ce1ca9e97064}, ! Layer 1
  {4a60668d-217a-483f-891e-a23950745f07}, ! Layer 2
  {e02ff536-3c18-4fe9-b2a9-494eb0613479}, ! Layer 3
  {33ced566-3f14-4b14-9e29-e99bb100c13b}; ! Layer 4

OS:Construction,
  {87f57ef6-1c4b-47f0-bef2-dabb9c89f608}, ! Handle
  ASHRAE 189.1-2009 ExtWall Mass ClimateZone alt-res 4, ! Name
  {d3d0243b-dbcf-4e8d-9f4e-68ca7ab7c7e4}, ! Surface Rendering Name
  {a04cd85e-5760-499f-be13-ce1ca9e97064}, ! Layer 1
  {4a60668d-217a-483f-891e-a23950745f07}, ! Layer 2
  {562407a5-5312-428e-bce7-fa349929b35f}, ! Layer 3
  {33ced566-3f14-4b14-9e29-e99bb100c13b}; ! Layer 4

OS:Construction,
  {51968046-5fb3-4432-a9d7-fff0cbda1559}, ! Handle
  ASHRAE 189.1-2009 ExtWall Mass ClimateZone alt-res 5, ! Name
  {b29dea27-4a9f-411a-857b-13964778c7ff}, ! Surface Rendering Name
  {a04cd85e-5760-499f-be13-ce1ca9e97064}, ! Layer 1
  {4a60668d-217a-483f-891e-a23950745f07}, ! Layer 2
  {8e61fdb7-868d-420b-af6d-74aa7db30cb9}, ! Layer 3
  {33ced566-3f14-4b14-9e29-e99bb100c13b}; ! Layer 4

OS:Construction,
  {538e39ef-b810-40c5-8013-21de79878c18}, ! Handle
  ASHRAE 189.1-2009 ExtWall Mass ClimateZone alt-res 6, ! Name
  {30b838b2-4777-45d7-9978-b338b6141544}, ! Surface Rendering Name
  {a04cd85e-5760-499f-be13-ce1ca9e97064}, ! Layer 1
  {4a60668d-217a-483f-891e-a23950745f07}, ! Layer 2
  {4327736a-6cc4-4ec8-a87f-1b1e9181a031}, ! Layer 3
  {33ced566-3f14-4b14-9e29-e99bb100c13b}; ! Layer 4

OS:Construction,
  {bdf104f2-336f-4e0f-9111-675b4b6a3cd7}, ! Handle
  ASHRAE 189.1-2009 ExtWall Mass ClimateZone alt-res 7, ! Name
  {9ca513ef-73ea-44e4-ba50-102e519de59c}, ! Surface Rendering Name
  {a04cd85e-5760-499f-be13-ce1ca9e97064}, ! Layer 1
  {4a60668d-217a-483f-891e-a23950745f07}, ! Layer 2
  {4327736a-6cc4-4ec8-a87f-1b1e9181a031}, ! Layer 3
  {33ced566-3f14-4b14-9e29-e99bb100c13b}; ! Layer 4

OS:Construction,
  {4ed35f01-1943-4d08-92a7-eecd7d9c875a}, ! Handle
  ASHRAE 189.1-2009 ExtWall Mass ClimateZone alt-res 8, ! Name
  {816b5895-553d-4b0e-84f7-58da1e459f8a}, ! Surface Rendering Name
  {a04cd85e-5760-499f-be13-ce1ca9e97064}, ! Layer 1
  {4a60668d-217a-483f-891e-a23950745f07}, ! Layer 2
  {4edee32e-78d5-455a-9243-afd433e5c4f6}, ! Layer 3
  {33ced566-3f14-4b14-9e29-e99bb100c13b}; ! Layer 4

OS:Construction,
  {77eef8eb-32e7-45ff-95b6-7b3049aa00e4}, ! Handle
  ASHRAE 189.1-2009 ExtWall Metal ClimateZone 1-3, ! Name
  {35bdf2e1-2072-4236-a0a2-1c7be35a5e3a}, ! Surface Rendering Name
  {256c11e5-134f-4700-8da1-530e30900647}, ! Layer 1
  {1785f169-4fe0-4971-a590-559aab73a069}, ! Layer 2
  {33ced566-3f14-4b14-9e29-e99bb100c13b}; ! Layer 3

OS:Construction,
  {d58f8223-9ebd-48a1-a805-d9940ebd72ad}, ! Handle
  ASHRAE 189.1-2009 ExtWall Metal ClimateZone 4-8, ! Name
  {ee19c203-7706-4cfb-9ab9-3b19186ee401}, ! Surface Rendering Name
  {256c11e5-134f-4700-8da1-530e30900647}, ! Layer 1
  {0401fbc2-2795-4519-991a-d985934f4cf1}, ! Layer 2
  {33ced566-3f14-4b14-9e29-e99bb100c13b}; ! Layer 3

OS:Construction,
  {310cf8c5-7831-477e-ad18-a3f713a234a0}, ! Handle
  ASHRAE 189.1-2009 ExtWall SteelFrame ClimateZone 1-3, ! Name
  {c25a0425-bc78-4e48-bb65-b8940d49c41b}, ! Surface Rendering Name
  {396f6bb7-c02e-4756-a986-9ed8f8dd0dba}, ! Layer 1
  {942cc134-3dad-4bb1-890f-2d60f3c026ab}, ! Layer 2
  {33ced566-3f14-4b14-9e29-e99bb100c13b}; ! Layer 3

OS:Construction,
  {eea48996-dfc6-4ca1-bb2a-0ae19b860748}, ! Handle
  ASHRAE 189.1-2009 ExtWall SteelFrame ClimateZone 4-8, ! Name
  {b7be96be-f201-4bf1-a594-a95b40d08ccc}, ! Surface Rendering Name
  {396f6bb7-c02e-4756-a986-9ed8f8dd0dba}, ! Layer 1
  {345f834d-ba34-4202-b82f-25d3415196d6}, ! Layer 2
  {33ced566-3f14-4b14-9e29-e99bb100c13b}; ! Layer 3

OS:Construction,
  {cf8035f6-58e2-4a9a-b357-f5c376e0f979}, ! Handle
  ASHRAE 189.1-2009 ExtWall WoodFrame ClimateZone 1-4, ! Name
  {8a7ced9d-e0c5-4ea2-af5e-a833927166c3}, ! Surface Rendering Name
  {68f1f8ba-3e8f-45aa-9c13-52b79b550b9d}, ! Layer 1
  {4289ef03-4e3b-463f-8d52-e2a74e39b3ed}, ! Layer 2
  {33ced566-3f14-4b14-9e29-e99bb100c13b}; ! Layer 3

OS:Construction,
  {65ec9065-317d-4d78-bec5-a2d37ab5fa39}, ! Handle
  ASHRAE 189.1-2009 ExtWall WoodFrame ClimateZone 5, ! Name
  {3641081e-f941-41e3-94f5-4c2f34c936e6}, ! Surface Rendering Name
  {68f1f8ba-3e8f-45aa-9c13-52b79b550b9d}, ! Layer 1
  {cecf7649-6e43-4851-849a-8d41e2a40d69}, ! Layer 2
  {33ced566-3f14-4b14-9e29-e99bb100c13b}; ! Layer 3

OS:Construction,
  {4e39e4fd-485e-4125-a7c5-921c2fdb4523}, ! Handle
  ASHRAE 189.1-2009 ExtWall WoodFrame ClimateZone 6-8, ! Name
  {7c9b0be9-5d73-406d-a63e-e1585a3467fd}, ! Surface Rendering Name
  {68f1f8ba-3e8f-45aa-9c13-52b79b550b9d}, ! Layer 1
  {2ffc41ce-c82e-4296-8d57-a2bbc80dd4f1}, ! Layer 2
  {33ced566-3f14-4b14-9e29-e99bb100c13b}; ! Layer 3

OS:Construction,
  {4c514394-de59-42cd-a228-599f07da0953}, ! Handle
  ASHRAE 189.1-2009 ExtWindow ClimateZone 1, ! Name
  {d1a1e18d-43da-42be-bd55-3f4ca09cad5c}, ! Surface Rendering Name
  {c688f3fb-fd45-4b84-8cd8-03830c015da9}; ! Layer 1

OS:Construction,
  {fdcfdfcb-0560-4d4f-a116-f081e2a39769}, ! Handle
  ASHRAE 189.1-2009 ExtWindow ClimateZone 2, ! Name
  {753629eb-9a46-4e96-81d0-d7ac55ba144f}, ! Surface Rendering Name
  {90e77556-a998-4b9b-a53a-6c7e71e74b2c}; ! Layer 1

OS:Construction,
  {ee040002-f615-4ceb-8243-0c22cc386b09}, ! Handle
  ASHRAE 189.1-2009 ExtWindow ClimateZone 3, ! Name
  {1535d5c1-06ae-444c-afe1-8495b4f3efa6}, ! Surface Rendering Name
  {b5b3e7c9-51a6-45f4-9892-daf3905696d2}; ! Layer 1

OS:Construction,
  {aabdfabe-edda-4865-b08e-8a5909226cdb}, ! Handle
  ASHRAE 189.1-2009 ExtWindow ClimateZone 4-5, ! Name
  {1c1e3a37-d5c9-4594-837e-1d5d07fb871a}, ! Surface Rendering Name
  {eb02c2ec-a79b-420a-a2ba-c2d2c6ec17c9}; ! Layer 1

OS:Construction,
  {5279f9e9-27d6-459d-8415-04359ec56515}, ! Handle
  ASHRAE 189.1-2009 ExtWindow ClimateZone 6, ! Name
  {df116055-d600-4fae-abe9-11a1bd97c69f}, ! Surface Rendering Name
  {3befc470-f2a4-4281-81a1-138f97be1050}; ! Layer 1

OS:Construction,
  {268e4154-66c9-4821-9e69-b91cc0e314df}, ! Handle
  ASHRAE 189.1-2009 ExtWindow ClimateZone 7-8, ! Name
  {c17c7317-14c9-41cf-84f8-d95b772988f2}, ! Surface Rendering Name
  {b6247f01-35c3-4077-a256-f86974c4e2d4}; ! Layer 1

OS:Construction,
  {7983441b-8584-43fc-9437-9a3ec24d56a1}, ! Handle
  ASHRAE 189.1-2009 ExtWindow ClimateZone alt-res 4-5, ! Name
  {73297479-bfaa-4d65-8141-8a6c3ac9ccec}, ! Surface Rendering Name
  {3befc470-f2a4-4281-81a1-138f97be1050}; ! Layer 1

OS:Construction,
  {ca5e99ae-0179-42be-bc03-b928e3138a9e}, ! Handle
  ASHRAE 90.1-2004 AtticFloor ClimateZone 1-5, ! Name
  {63c8042d-997b-4482-9316-549e3220030a}, ! Surface Rendering Name
  {33ced566-3f14-4b14-9e29-e99bb100c13b}, ! Layer 1
  {ac644690-4656-42e5-a642-15ef2e04bceb}, ! Layer 2
  {33ced566-3f14-4b14-9e29-e99bb100c13b}; ! Layer 3

OS:Construction,
  {f8ecf237-d1f4-4f4c-8be6-21937eefa9fb}, ! Handle
  ASHRAE 90.1-2004 AtticFloor ClimateZone 6-8, ! Name
  {c103a90f-47da-47fc-9208-c3c63bc7ccda}, ! Surface Rendering Name
  {33ced566-3f14-4b14-9e29-e99bb100c13b}, ! Layer 1
  {7541fba9-af1b-489f-9247-f4761897c47e}, ! Layer 2
  {33ced566-3f14-4b14-9e29-e99bb100c13b}; ! Layer 3

OS:Construction,
  {9c032c56-6d38-45d7-a93a-5f0c78728e07}, ! Handle
  ASHRAE 90.1-2004 ExtRoof IEAD ClimateZone 1-4, ! Name
  {47bd8701-787f-4713-9a91-eb69ff5bcc20}, ! Surface Rendering Name
  {d920c3d0-b651-4e33-8e78-38125859be16}, ! Layer 1
  {c45fdae5-32db-4b34-812e-29c5e0ed0570}, ! Layer 2
  {d98e20cd-528f-4eb3-913a-e499c81f6a6f}; ! Layer 3

OS:Construction,
  {c01792e5-6c2e-4c3b-8e1d-4f732b797996}, ! Handle
  ASHRAE 90.1-2004 ExtRoof IEAD ClimateZone 5-6, ! Name
  {7b7ba29b-1e74-4b13-b11f-065ca23676cb}, ! Surface Rendering Name
  {d920c3d0-b651-4e33-8e78-38125859be16}, ! Layer 1
  {2e14e292-7e94-4c07-b3a5-82a54ee1f0f8}, ! Layer 2
  {d98e20cd-528f-4eb3-913a-e499c81f6a6f}; ! Layer 3

OS:Construction,
  {a5906217-8755-4273-8ab3-1b0e831c37e6}, ! Handle
  ASHRAE 90.1-2004 ExtRoof IEAD ClimateZone 7, ! Name
  {a0187e3f-6f5b-4aea-9854-ab35dfd958cf}, ! Surface Rendering Name
  {d920c3d0-b651-4e33-8e78-38125859be16}, ! Layer 1
  {c45fdae5-32db-4b34-812e-29c5e0ed0570}, ! Layer 2
  {d98e20cd-528f-4eb3-913a-e499c81f6a6f}; ! Layer 3

OS:Construction,
  {dc62966f-3db9-4687-8548-af0b1de23601}, ! Handle
  ASHRAE 90.1-2004 ExtRoof IEAD ClimateZone 8, ! Name
  {f270f91d-f3ec-4c9a-9e04-dc75ef39b5cf}, ! Surface Rendering Name
  {d920c3d0-b651-4e33-8e78-38125859be16}, ! Layer 1
  {bc3aec7c-4c6e-449c-9b65-71441a880a11}, ! Layer 2
  {d98e20cd-528f-4eb3-913a-e499c81f6a6f}; ! Layer 3

OS:Construction,
  {ecaff44a-8acb-4bfe-87ff-e284086e9771}, ! Handle
  ASHRAE 90.1-2004 ExtRoof Metal ClimateZone 1, ! Name
  {5152eab8-c7d1-4eb0-972b-b34b8fa9579b}, ! Surface Rendering Name
  {3c99e7c5-049b-4e6f-822f-622537bc9a9d}; ! Layer 1

OS:Construction,
  {65a65318-455d-48b1-8e91-6b7e54eb700d}, ! Handle
  ASHRAE 90.1-2004 ExtRoof Metal ClimateZone 2, ! Name
  {f81c3888-e52a-4237-8d0c-3ff571171ce4}, ! Surface Rendering Name
  {3c99e7c5-049b-4e6f-822f-622537bc9a9d}, ! Layer 1
  {5f4bdf7c-cf6a-4f9c-acf5-59794892bf72}; ! Layer 2

OS:Construction,
  {71d0cad9-b623-44ae-bb4a-f8aad45fe871}, ! Handle
  ASHRAE 90.1-2004 ExtRoof Metal ClimateZone 3-4, ! Name
  {c839d191-015d-4d0c-9e73-0fe7e0aceb6d}, ! Surface Rendering Name
  {3c99e7c5-049b-4e6f-822f-622537bc9a9d}, ! Layer 1
  {78ba5606-4e90-41d9-80b1-f093ef80ade7}; ! Layer 2

OS:Construction,
  {6f3601c0-6fd1-4c95-8bc9-e25648f07cf2}, ! Handle
  ASHRAE 90.1-2004 ExtRoof Metal ClimateZone 5-6, ! Name
  {2e81c05f-cb4c-4f06-b28c-24a4e455016e}, ! Surface Rendering Name
  {3c99e7c5-049b-4e6f-822f-622537bc9a9d}, ! Layer 1
  {fcc65fda-f187-4709-9032-40bd5e28bf77}; ! Layer 2

OS:Construction,
  {aa743018-6841-4150-9acd-0076b198761a}, ! Handle
  ASHRAE 90.1-2004 ExtRoof Metal ClimateZone 7, ! Name
  {774decca-5495-42c5-ba07-fc98e386b8c0}, ! Surface Rendering Name
  {3c99e7c5-049b-4e6f-822f-622537bc9a9d}, ! Layer 1
  {78ba5606-4e90-41d9-80b1-f093ef80ade7}; ! Layer 2

OS:Construction,
  {6fb3abbd-8201-4a4b-888d-fc2c423882a8}, ! Handle
  ASHRAE 90.1-2004 ExtRoof Metal ClimateZone 8, ! Name
  {0168cd4a-d607-46b3-8618-d9e3fd106db9}, ! Surface Rendering Name
  {3c99e7c5-049b-4e6f-822f-622537bc9a9d}, ! Layer 1
  {fc41ec15-84ea-47d1-9f6e-d81d129b279f}; ! Layer 2

OS:Construction,
  {d4472eea-23fe-40a1-a8bb-f8bd63346e03}, ! Handle
  ASHRAE 90.1-2004 ExtWall Mass ClimateZone 1-2, ! Name
  {f3957f0f-0eae-4ee9-812d-3e44f4549535}, ! Surface Rendering Name
  {a04cd85e-5760-499f-be13-ce1ca9e97064}, ! Layer 1
  {be3206dc-9a6c-4b88-a679-2d823400cce1}, ! Layer 2
  {33ced566-3f14-4b14-9e29-e99bb100c13b}; ! Layer 3

OS:Construction,
  {754f657f-9c6b-4a64-a628-e8915d72243d}, ! Handle
  ASHRAE 90.1-2004 ExtWall Mass ClimateZone 3-4, ! Name
  {db6fa25f-79e7-47cb-8797-596aa7bd4146}, ! Surface Rendering Name
  {a04cd85e-5760-499f-be13-ce1ca9e97064}, ! Layer 1
  {be3206dc-9a6c-4b88-a679-2d823400cce1}, ! Layer 2
  {4dc43061-7877-4879-acc8-6599bfc771cb}, ! Layer 3
  {33ced566-3f14-4b14-9e29-e99bb100c13b}; ! Layer 4

OS:Construction,
  {aca82af5-61ff-420c-b18d-81e9855b95b2}, ! Handle
  ASHRAE 90.1-2004 ExtWall Mass ClimateZone 5, ! Name
  {46bd1d71-3838-4c98-9c35-53b88e37f593}, ! Surface Rendering Name
  {a04cd85e-5760-499f-be13-ce1ca9e97064}, ! Layer 1
  {be3206dc-9a6c-4b88-a679-2d823400cce1}, ! Layer 2
  {99cab0c8-22b9-473b-a592-48e4eaf071b8}, ! Layer 3
  {33ced566-3f14-4b14-9e29-e99bb100c13b}; ! Layer 4

OS:Construction,
  {6920d02c-7c77-4976-8be4-243faea0c1f2}, ! Handle
  ASHRAE 90.1-2004 ExtWall Mass ClimateZone 6, ! Name
  {7cd8c314-2abc-4710-bdf3-f2a08a71fc63}, ! Surface Rendering Name
  {a04cd85e-5760-499f-be13-ce1ca9e97064}, ! Layer 1
  {be3206dc-9a6c-4b88-a679-2d823400cce1}, ! Layer 2
  {6ebf487b-cdb6-4b16-b1b2-89e9b45ad0cb}, ! Layer 3
  {33ced566-3f14-4b14-9e29-e99bb100c13b}; ! Layer 4

OS:Construction,
  {ed3a3403-18e4-42e2-8bb6-3a0721f32a2f}, ! Handle
  ASHRAE 90.1-2004 ExtWall Mass ClimateZone 7, ! Name
  {ef29afe8-aa7d-4721-b107-c50009fedde3}, ! Surface Rendering Name
  {a04cd85e-5760-499f-be13-ce1ca9e97064}, ! Layer 1
  {be3206dc-9a6c-4b88-a679-2d823400cce1}, ! Layer 2
  {5d7591c4-8b1a-4675-9b83-764c486b2e60}, ! Layer 3
  {33ced566-3f14-4b14-9e29-e99bb100c13b}; ! Layer 4

OS:Construction,
  {b6c26175-8d99-425f-88eb-b077bd64c67a}, ! Handle
  ASHRAE 90.1-2004 ExtWall Mass ClimateZone 8, ! Name
  {7ae0d18c-1734-478b-b8db-54f0513754c5}, ! Surface Rendering Name
  {a04cd85e-5760-499f-be13-ce1ca9e97064}, ! Layer 1
  {be3206dc-9a6c-4b88-a679-2d823400cce1}, ! Layer 2
  {61c6ebd7-2d42-4bab-be43-5d8f5ea3d2f7}, ! Layer 3
  {33ced566-3f14-4b14-9e29-e99bb100c13b}; ! Layer 4

OS:Construction,
  {9cf7dc84-110c-4f84-ba1c-1fedf6d93cde}, ! Handle
  ASHRAE 90.1-2004 ExtWall Mass ClimateZone alt-res 1-2, ! Name
  {2069db85-c79d-4977-a62f-c8b53332687a}, ! Surface Rendering Name
  {a04cd85e-5760-499f-be13-ce1ca9e97064}, ! Layer 1
  {be3206dc-9a6c-4b88-a679-2d823400cce1}, ! Layer 2
  {4dc43061-7877-4879-acc8-6599bfc771cb}, ! Layer 3
  {33ced566-3f14-4b14-9e29-e99bb100c13b}; ! Layer 4

OS:Construction,
  {bc16ca97-1bbe-4d4a-b496-1b0e66f3798d}, ! Handle
  ASHRAE 90.1-2004 ExtWall Mass ClimateZone alt-res 3, ! Name
  {ce86c0e0-04ce-4bdb-86b7-6c149407814c}, ! Surface Rendering Name
  {a04cd85e-5760-499f-be13-ce1ca9e97064}, ! Layer 1
  {be3206dc-9a6c-4b88-a679-2d823400cce1}, ! Layer 2
  {99cab0c8-22b9-473b-a592-48e4eaf071b8}, ! Layer 3
  {33ced566-3f14-4b14-9e29-e99bb100c13b}; ! Layer 4

OS:Construction,
  {a41a58a9-95b6-4818-9cfe-034b7e25662d}, ! Handle
  ASHRAE 90.1-2004 ExtWall Mass ClimateZone alt-res 4, ! Name
  {afb455c3-423e-4b82-81f2-fc8f6d2f0f95}, ! Surface Rendering Name
  {a04cd85e-5760-499f-be13-ce1ca9e97064}, ! Layer 1
  {be3206dc-9a6c-4b88-a679-2d823400cce1}, ! Layer 2
  {6ebf487b-cdb6-4b16-b1b2-89e9b45ad0cb}, ! Layer 3
  {33ced566-3f14-4b14-9e29-e99bb100c13b}; ! Layer 4

OS:Construction,
  {d52b2415-d8b8-4ff8-8cb7-38131bd93b52}, ! Handle
  ASHRAE 90.1-2004 ExtWall Mass ClimateZone alt-res 5-6, ! Name
  {19280e4d-f296-4ed8-be47-61d90b16c2f9}, ! Surface Rendering Name
  {a04cd85e-5760-499f-be13-ce1ca9e97064}, ! Layer 1
  {be3206dc-9a6c-4b88-a679-2d823400cce1}, ! Layer 2
  {5d7591c4-8b1a-4675-9b83-764c486b2e60}, ! Layer 3
  {33ced566-3f14-4b14-9e29-e99bb100c13b}; ! Layer 4

OS:Construction,
  {e6bd04a5-213c-4774-903a-2e5b707f55ed}, ! Handle
  ASHRAE 90.1-2004 ExtWall Mass ClimateZone alt-res 7, ! Name
  {b15f58c1-6555-4364-84b2-466aa82c549a}, ! Surface Rendering Name
  {a04cd85e-5760-499f-be13-ce1ca9e97064}, ! Layer 1
  {be3206dc-9a6c-4b88-a679-2d823400cce1}, ! Layer 2
  {61c6ebd7-2d42-4bab-be43-5d8f5ea3d2f7}, ! Layer 3
  {33ced566-3f14-4b14-9e29-e99bb100c13b}; ! Layer 4

OS:Construction,
  {47d41c1e-ed61-4571-adac-b92f2c490d22}, ! Handle
  ASHRAE 90.1-2004 ExtWall Mass ClimateZone alt-res 8, ! Name
  {31c9ca59-ceb4-4783-a785-2be97572194a}, ! Surface Rendering Name
  {a04cd85e-5760-499f-be13-ce1ca9e97064}, ! Layer 1
  {be3206dc-9a6c-4b88-a679-2d823400cce1}, ! Layer 2
  {84f2fb82-54c0-4bcb-ba92-a025460894f4}, ! Layer 3
  {33ced566-3f14-4b14-9e29-e99bb100c13b}; ! Layer 4

OS:Construction,
  {63948486-708c-4109-b778-42e5d80d649b}, ! Handle
  ASHRAE 90.1-2004 ExtWall Metal ClimateZone 1, ! Name
  {46088a19-d18d-4315-8c16-5ffec7b27984}, ! Surface Rendering Name
  {256c11e5-134f-4700-8da1-530e30900647}, ! Layer 1
  {33ced566-3f14-4b14-9e29-e99bb100c13b}; ! Layer 2

OS:Construction,
  {20eb45bb-396d-4fc0-9dfd-3abc233edd8e}, ! Handle
  ASHRAE 90.1-2004 ExtWall Metal ClimateZone 2-3, ! Name
  {ed483297-743c-4f46-9e2f-4ccac2a7e706}, ! Surface Rendering Name
  {256c11e5-134f-4700-8da1-530e30900647}, ! Layer 1
  {ea511010-879f-4420-9a18-23b03b67db9d}, ! Layer 2
  {33ced566-3f14-4b14-9e29-e99bb100c13b}; ! Layer 3

OS:Construction,
  {06eff73b-7dd1-4254-8fc2-adbcc67bc6b1}, ! Handle
  ASHRAE 90.1-2004 ExtWall Metal ClimateZone 4, ! Name
  {bc167e1b-a6b5-4d53-aefe-68198e84a6b5}, ! Surface Rendering Name
  {256c11e5-134f-4700-8da1-530e30900647}, ! Layer 1
  {af94548d-05bf-4f82-9df0-522bd185f3ff}, ! Layer 2
  {33ced566-3f14-4b14-9e29-e99bb100c13b}; ! Layer 3

OS:Construction,
  {bb70cb33-293f-457a-b135-44de46dcbdcd}, ! Handle
  ASHRAE 90.1-2004 ExtWall Metal ClimateZone 5, ! Name
  {a780c263-d18a-41cd-baff-ce5610ec59f2}, ! Surface Rendering Name
  {256c11e5-134f-4700-8da1-530e30900647}, ! Layer 1
  {295f6e44-787f-4d85-a14c-3dcc2f5a2550}, ! Layer 2
  {33ced566-3f14-4b14-9e29-e99bb100c13b}; ! Layer 3

OS:Construction,
  {4783e649-d933-4518-86c2-dd60856addfc}, ! Handle
  ASHRAE 90.1-2004 ExtWall Metal ClimateZone 6-8, ! Name
  {eb924bdb-b7bc-49fe-8b41-099e17d5f303}, ! Surface Rendering Name