
OS:Version,
  {3e4f382c-4887-4d13-9f83-a3ad08fd65e1}, !- Handle
  1.2.3;                                  !- Version Identifier

OS:Construction,
  {d29e2055-9dd0-4fee-9bb0-d882815b9485}, !- Handle
  ASHRAE 189.1-2009 AtticFloor ClimateZone 1-8, !- Name
  ,                                       !- Surface Rendering Name
  {250e1ee2-708e-4902-8a0b-c8227972765e}, !- Layer 1
  {65a09f2d-0d53-49b8-88ce-ce716331f8f1}, !- Layer 2
  {250e1ee2-708e-4902-8a0b-c8227972765e}; !- Layer 3

OS:StandardsInformation:Construction,
  {bc21c416-f1d9-4304-98c6-e26ef6e179b3}, !- Handle
  {d29e2055-9dd0-4fee-9bb0-d882815b9485}, !- Construction Name
  AtticFloor,                             !- Intended Surface Type
  WoodFramed;                             !- Standards Construction Type

OS:Material,
  {250e1ee2-708e-4902-8a0b-c8227972765e}, !- Handle
  1/2IN Gypsum,                           !- Name
  Smooth,                                 !- Roughness
  0.0127,                                 !- Thickness {m}
  0.16,                                   !- Conductivity {W/m-K}
  784.9,                                  !- Density {kg/m3}
  830.000000000001,                       !- Specific Heat {J/kg-K}
  0.9,                                    !- Thermal Absorptance
  0.92,                                   !- Solar Absorptance
  0.92;                                   !- Visible Absorptance

OS:Material,
  {65a09f2d-0d53-49b8-88ce-ce716331f8f1}, !- Handle
  AtticFloor Insulation,                  !- Name
  MediumRough,                            !- Roughness
  0.2379,                                 !- Thickness {m}
  0.049,                                  !- Conductivity {W/m-K}
  265,                                    !- Density {kg/m3}
  836.800000000001,                       !- Specific Heat {J/kg-K}
  0.9,                                    !- Thermal Absorptance
  0.7,                                    !- Solar Absorptance
  0.7;                                    !- Visible Absorptance

OS:Construction,
  {d9db6782-cbed-49be-8b93-94810fc7b980}, !- Handle
  ASHRAE 189.1-2009 ExtRoof IEAD ClimateZone 1, !- Name
  ,                                       !- Surface Rendering Name
  {9f1c3bd9-9856-4f2f-8bd5-43f0ca87aaef}, !- Layer 1
  {e3326137-736a-4ddf-abe7-b8973c43339e}, !- Layer 2
  {7653d185-dc79-4fd1-ac0b-c761b41c851a}; !- Layer 3

OS:StandardsInformation:Construction,
  {3755260a-529a-4cbc-ad4c-cebb499cad0c}, !- Handle
  {d9db6782-cbed-49be-8b93-94810fc7b980}, !- Construction Name
  ExteriorRoof,                           !- Intended Surface Type
  IEAD;                                   !- Standards Construction Type

OS:Material,
  {9f1c3bd9-9856-4f2f-8bd5-43f0ca87aaef}, !- Handle
  Roof Membrane,                          !- Name
  VeryRough,                              !- Roughness
  0.0095,                                 !- Thickness {m}
  0.16,                                   !- Conductivity {W/m-K}
  1121.29,                                !- Density {kg/m3}
  1460,                                   !- Specific Heat {J/kg-K}
  0.9,                                    !- Thermal Absorptance
  0.7,                                    !- Solar Absorptance
  0.7;                                    !- Visible Absorptance

OS:Material,
  {e3326137-736a-4ddf-abe7-b8973c43339e}, !- Handle
  Roof Insulation [18],                   !- Name
  MediumRough,                            !- Roughness
  0.1693,                                 !- Thickness {m}
  0.049,                                  !- Conductivity {W/m-K}
  265,                                    !- Density {kg/m3}
  836.800000000001,                       !- Specific Heat {J/kg-K}
  0.9,                                    !- Thermal Absorptance
  0.7,                                    !- Solar Absorptance
  0.7;                                    !- Visible Absorptance

OS:Material,
  {7653d185-dc79-4fd1-ac0b-c761b41c851a}, !- Handle
  Metal Decking,                          !- Name
  MediumSmooth,                           !- Roughness
  0.0015,                                 !- Thickness {m}
  45.006,                                 !- Conductivity {W/m-K}
  7680,                                   !- Density {kg/m3}
  418.4,                                  !- Specific Heat {J/kg-K}
  0.9,                                    !- Thermal Absorptance
  0.7,                                    !- Solar Absorptance
  0.3;                                    !- Visible Absorptance

OS:Construction,
  {1f3af0f4-de16-45fa-92f9-e78f8e31ac55}, !- Handle
  ASHRAE 189.1-2009 ExtRoof IEAD ClimateZone 2-5, !- Name
  ,                                       !- Surface Rendering Name
  {9f1c3bd9-9856-4f2f-8bd5-43f0ca87aaef}, !- Layer 1
  {cbde65b4-43f0-40f8-93a2-d7fa8c070ce2}, !- Layer 2
  {7653d185-dc79-4fd1-ac0b-c761b41c851a}; !- Layer 3

OS:StandardsInformation:Construction,
  {4bc17dd2-15d6-4f77-bc14-741082b66a4a}, !- Handle
  {1f3af0f4-de16-45fa-92f9-e78f8e31ac55}, !- Construction Name
  ExteriorRoof,                           !- Intended Surface Type
  IEAD;                                   !- Standards Construction Type

OS:Material,
  {cbde65b4-43f0-40f8-93a2-d7fa8c070ce2}, !- Handle
  Roof Insulation [21],                   !- Name
  MediumRough,                            !- Roughness
  0.2105,                                 !- Thickness {m}
  0.049,                                  !- Conductivity {W/m-K}
  265,                                    !- Density {kg/m3}
  836.800000000001,                       !- Specific Heat {J/kg-K}
  0.9,                                    !- Thermal Absorptance
  0.7,                                    !- Solar Absorptance
  0.7;                                    !- Visible Absorptance

OS:Construction,
  {2b090f4c-a443-4890-9807-6161c740a9eb}, !- Handle
  ASHRAE 189.1-2009 ExtRoof IEAD ClimateZone 6, !- Name
  ,                                       !- Surface Rendering Name
  {9f1c3bd9-9856-4f2f-8bd5-43f0ca87aaef}, !- Layer 1
  {3cb83fb1-13b5-4a8c-9e09-39c582d84b15}, !- Layer 2
  {7653d185-dc79-4fd1-ac0b-c761b41c851a}; !- Layer 3

OS:StandardsInformation:Construction,
  {7af9473e-8ca9-4c63-ac9f-38030ddb59de}, !- Handle
  {2b090f4c-a443-4890-9807-6161c740a9eb}, !- Construction Name
  ExteriorRoof,                           !- Intended Surface Type
  IEAD;                                   !- Standards Construction Type

OS:Material,
  {3cb83fb1-13b5-4a8c-9e09-39c582d84b15}, !- Handle
  Roof Insulation [24],                   !- Name
  MediumRough,                            !- Roughness
  0.260100000000001,                      !- Thickness {m}
  0.049,                                  !- Conductivity {W/m-K}
  265,                                    !- Density {kg/m3}
  836.800000000001,                       !- Specific Heat {J/kg-K}
  0.9,                                    !- Thermal Absorptance
  0.7,                                    !- Solar Absorptance
  0.7;                                    !- Visible Absorptance

OS:Construction,
  {98b2a7b4-3da5-4481-a59d-f51e619e31f3}, !- Handle
  ASHRAE 189.1-2009 ExtRoof IEAD ClimateZone 7-8, !- Name
  ,                                       !- Surface Rendering Name
  {9f1c3bd9-9856-4f2f-8bd5-43f0ca87aaef}, !- Layer 1
  {f1bd52d3-02fa-47fc-9a5d-562ab769d374}, !- Layer 2
  {7653d185-dc79-4fd1-ac0b-c761b41c851a}; !- Layer 3

OS:StandardsInformation:Construction,
  {8f19e114-1de0-4da0-8ca9-96465ccd2259}, !- Handle
  {98b2a7b4-3da5-4481-a59d-f51e619e31f3}, !- Construction Name
  ExteriorRoof,                           !- Intended Surface Type
  IEAD;                                   !- Standards Construction Type

OS:Material,
  {f1bd52d3-02fa-47fc-9a5d-562ab769d374}, !- Handle
  Roof Insulation [26],                   !- Name
  MediumRough,                            !- Roughness
  0.2941,                                 !- Thickness {m}
  0.049,                                  !- Conductivity {W/m-K}
  265,                                    !- Density {kg/m3}
  836.800000000001,                       !- Specific Heat {J/kg-K}
  0.9,                                    !- Thermal Absorptance
  0.7,                                    !- Solar Absorptance
  0.7;                                    !- Visible Absorptance

OS:Construction,
  {d2869188-9337-4a0e-a785-9d702b541335}, !- Handle
  ASHRAE 189.1-2009 ExtRoof Metal ClimateZone 1, !- Name
  ,                                       !- Surface Rendering Name
  {505cc4f3-da0e-44a7-92d5-4a1beeb45427}, !- Layer 1
  {c2cda519-4a3e-4ed1-87ef-69d9cf700ac1}; !- Layer 2

OS:StandardsInformation:Construction,
  {deddbf4c-8559-4723-9544-2aea1286ab29}, !- Handle
  {d2869188-9337-4a0e-a785-9d702b541335}, !- Construction Name
  ExteriorRoof,                           !- Intended Surface Type
  Metal;                                  !- Standards Construction Type

OS:Material,
  {505cc4f3-da0e-44a7-92d5-4a1beeb45427}, !- Handle
  Metal Roofing,                          !- Name
  MediumSmooth,                           !- Roughness
  0.0015,                                 !- Thickness {m}
  45.006,                                 !- Conductivity {W/m-K}
  7680,                                   !- Density {kg/m3}
  418.4,                                  !- Specific Heat {J/kg-K}
  0.9,                                    !- Thermal Absorptance
  0.3,                                    !- Solar Absorptance
  0.3;                                    !- Visible Absorptance

OS:Material,
  {c2cda519-4a3e-4ed1-87ef-69d9cf700ac1}, !- Handle
  Roof Insulation [19],                   !- Name
  MediumRough,                            !- Roughness
  0.1868,                                 !- Thickness {m}
  0.049,                                  !- Conductivity {W/m-K}
  265,                                    !- Density {kg/m3}
  836.800000000001,                       !- Specific Heat {J/kg-K}
  0.9,                                    !- Thermal Absorptance
  0.7,                                    !- Solar Absorptance
  0.7;                                    !- Visible Absorptance

OS:Construction,
  {ffe40ee7-ae28-43d2-8e76-e72b2f811b63}, !- Handle
  ASHRAE 189.1-2009 ExtRoof Metal ClimateZone 2-5, !- Name
  ,                                       !- Surface Rendering Name
  {505cc4f3-da0e-44a7-92d5-4a1beeb45427}, !- Layer 1
  {9633bfc5-6fd8-4e66-90b8-4529da2145eb}; !- Layer 2

OS:StandardsInformation:Construction,
  {a33d0f39-d641-433d-a127-603614450855}, !- Handle
  {ffe40ee7-ae28-43d2-8e76-e72b2f811b63}, !- Construction Name
  ExteriorRoof,                           !- Intended Surface Type
  Metal;                                  !- Standards Construction Type

OS:Material,
  {9633bfc5-6fd8-4e66-90b8-4529da2145eb}, !- Handle
  Roof Insulation [22],                   !- Name
  MediumRough,                            !- Roughness
  0.2358,                                 !- Thickness {m}
  0.049,                                  !- Conductivity {W/m-K}
  265,                                    !- Density {kg/m3}
  836.800000000001,                       !- Specific Heat {J/kg-K}
  0.9,                                    !- Thermal Absorptance
  0.7,                                    !- Solar Absorptance
  0.7;                                    !- Visible Absorptance

OS:Construction,
  {a2ffc9de-9718-402d-aa70-067e3d3aec4e}, !- Handle
  ASHRAE 189.1-2009 ExtRoof Metal ClimateZone 6, !- Name
  ,                                       !- Surface Rendering Name
  {505cc4f3-da0e-44a7-92d5-4a1beeb45427}, !- Layer 1
  {876a41e5-dd26-4404-9b75-5bb2d54711e8}; !- Layer 2

OS:StandardsInformation:Construction,
  {fff78eeb-d4fe-4bfd-9781-fb76bbef2a62}, !- Handle
  {a2ffc9de-9718-402d-aa70-067e3d3aec4e}, !- Construction Name
  ExteriorRoof,                           !- Intended Surface Type
  Metal;                                  !- Standards Construction Type

OS:Material,
  {876a41e5-dd26-4404-9b75-5bb2d54711e8}, !- Handle
  Roof Insulation [25],                   !- Name
  MediumRough,                            !- Roughness
  0.263,                                  !- Thickness {m}
  0.049,                                  !- Conductivity {W/m-K}
  265,                                    !- Density {kg/m3}
  836.800000000001,                       !- Specific Heat {J/kg-K}
  0.9,                                    !- Thermal Absorptance
  0.7,                                    !- Solar Absorptance
  0.7;                                    !- Visible Absorptance

OS:Construction,
  {e1dc2a6a-3dd7-43fe-a9cf-c91ef7eb2ec6}, !- Handle
  ASHRAE 189.1-2009 ExtRoof Metal ClimateZone 7-8, !- Name
  ,                                       !- Surface Rendering Name
  {505cc4f3-da0e-44a7-92d5-4a1beeb45427}, !- Layer 1
  {82461ec2-28ce-49b3-8cf9-8165c6ad7d9a}; !- Layer 2

OS:StandardsInformation:Construction,
  {27372882-2822-40a2-8a8b-a17612d6ec73}, !- Handle
  {e1dc2a6a-3dd7-43fe-a9cf-c91ef7eb2ec6}, !- Construction Name
  ExteriorRoof,                           !- Intended Surface Type
  Metal;                                  !- Standards Construction Type

OS:Material,
  {82461ec2-28ce-49b3-8cf9-8165c6ad7d9a}, !- Handle
  Roof Insulation [27],                   !- Name
  MediumRough,                            !- Roughness
  0.297000000000001,                      !- Thickness {m}
  0.049,                                  !- Conductivity {W/m-K}
  265,                                    !- Density {kg/m3}
  836.800000000001,                       !- Specific Heat {J/kg-K}
  0.9,                                    !- Thermal Absorptance
  0.7,                                    !- Solar Absorptance
  0.7;                                    !- Visible Absorptance

OS:Construction,
  {1b21807f-b11f-4dab-b4ed-e1b2649d1981}, !- Handle
  ASHRAE 189.1-2009 ExtWall Mass ClimateZone 1, !- Name
  ,                                       !- Surface Rendering Name
  {ba72e1a4-c47f-42ae-bd7c-9bfbdf937908}, !- Layer 1
  {913c78cf-4874-4d2d-9d1e-e7038adeb786}, !- Layer 2
  {e9cfa7cf-0b6a-4fc6-aa12-f34475784342}, !- Layer 3
  {250e1ee2-708e-4902-8a0b-c8227972765e}; !- Layer 4

OS:StandardsInformation:Construction,
  {db7abf30-24f3-43c1-a80b-781777c16507}, !- Handle
  {1b21807f-b11f-4dab-b4ed-e1b2649d1981}, !- Construction Name
  ExteriorWall,                           !- Intended Surface Type
  Mass;                                   !- Standards Construction Type

OS:Material,
  {ba72e1a4-c47f-42ae-bd7c-9bfbdf937908}, !- Handle
  1IN Stucco,                             !- Name
  Smooth,                                 !- Roughness
  0.0253,                                 !- Thickness {m}
  0.691799999999999,                      !- Conductivity {W/m-K}
  1858,                                   !- Density {kg/m3}
  836.999999999999,                       !- Specific Heat {J/kg-K}
  0.9,                                    !- Thermal Absorptance
  0.92,                                   !- Solar Absorptance
  0.92;                                   !- Visible Absorptance

OS:Material,
  {913c78cf-4874-4d2d-9d1e-e7038adeb786}, !- Handle
  8IN Concrete HW,                        !- Name
  MediumRough,                            !- Roughness
  0.2033,                                 !- Thickness {m}
  1.72959999999999,                       !- Conductivity {W/m-K}
  2242.99999999999,                       !- Density {kg/m3}
  836.999999999999,                       !- Specific Heat {J/kg-K}
  0.9,                                    !- Thermal Absorptance
  0.65,                                   !- Solar Absorptance
  0.65;                                   !- Visible Absorptance

OS:Material,
  {e9cfa7cf-0b6a-4fc6-aa12-f34475784342}, !- Handle
  Wall Insulation [31],                   !- Name
  MediumRough,                            !- Roughness
  0.0337000000000001,                     !- Thickness {m}
  0.0432,                                 !- Conductivity {W/m-K}
  91,                                     !- Density {kg/m3}
  836.999999999999,                       !- Specific Heat {J/kg-K}
  0.9,                                    !- Thermal Absorptance
  0.5,                                    !- Solar Absorptance
  0.5;                                    !- Visible Absorptance

OS:Construction,
  {4570500b-a1f3-4fde-9046-3feb930f1948}, !- Handle
  ASHRAE 189.1-2009 ExtWall Mass ClimateZone 2, !- Name
  ,                                       !- Surface Rendering Name
  {ba72e1a4-c47f-42ae-bd7c-9bfbdf937908}, !- Layer 1
  {913c78cf-4874-4d2d-9d1e-e7038adeb786}, !- Layer 2
  {3bc6d3fa-daf8-431d-bb89-72bdb1605859}, !- Layer 3
  {250e1ee2-708e-4902-8a0b-c8227972765e}; !- Layer 4

OS:StandardsInformation:Construction,
  {713dc00a-127a-4339-abd0-01d316d24a93}, !- Handle
  {4570500b-a1f3-4fde-9046-3feb930f1948}, !- Construction Name
  ExteriorWall,                           !- Intended Surface Type
  Mass;                                   !- Standards Construction Type

OS:Material,
  {3bc6d3fa-daf8-431d-bb89-72bdb1605859}, !- Handle
  Wall Insulation [35],                   !- Name
  MediumRough,                            !- Roughness
  0.0452,                                 !- Thickness {m}
  0.0432,                                 !- Conductivity {W/m-K}
  91,                                     !- Density {kg/m3}
  836.999999999999,                       !- Specific Heat {J/kg-K}
  0.9,                                    !- Thermal Absorptance
  0.5,                                    !- Solar Absorptance
  0.5;                                    !- Visible Absorptance

OS:Construction,
  {c4ee9498-95a9-46bc-82be-84589fd101a9}, !- Handle
  ASHRAE 189.1-2009 ExtWall Mass ClimateZone 3, !- Name
  ,                                       !- Surface Rendering Name
  {ba72e1a4-c47f-42ae-bd7c-9bfbdf937908}, !- Layer 1
  {913c78cf-4874-4d2d-9d1e-e7038adeb786}, !- Layer 2
  {34710783-823f-488e-983a-ab99e1f95dfc}, !- Layer 3
  {250e1ee2-708e-4902-8a0b-c8227972765e}; !- Layer 4

OS:StandardsInformation:Construction,
  {bfbde4f1-02f8-47bc-ac41-7674973a538e}, !- Handle
  {c4ee9498-95a9-46bc-82be-84589fd101a9}, !- Construction Name
  ExteriorWall,                           !- Intended Surface Type
  Mass;                                   !- Standards Construction Type

OS:Material,
  {34710783-823f-488e-983a-ab99e1f95dfc}, !- Handle
  Wall Insulation [36],                   !- Name
  MediumRough,                            !- Roughness
  0.0565999999999999,                     !- Thickness {m}
  0.0432,                                 !- Conductivity {W/m-K}
  91,                                     !- Density {kg/m3}
  836.999999999999,                       !- Specific Heat {J/kg-K}
  0.9,                                    !- Thermal Absorptance
  0.5,                                    !- Solar Absorptance
  0.5;                                    !- Visible Absorptance

OS:Construction,
  {31dbe688-2c18-4d95-aa61-55d82cc540d8}, !- Handle
  ASHRAE 189.1-2009 ExtWall Mass ClimateZone 4, !- Name
  ,                                       !- Surface Rendering Name
  {ba72e1a4-c47f-42ae-bd7c-9bfbdf937908}, !- Layer 1
  {913c78cf-4874-4d2d-9d1e-e7038adeb786}, !- Layer 2
  {62c9d1c2-b969-49a5-b411-e0eb5d07410b}, !- Layer 3
  {250e1ee2-708e-4902-8a0b-c8227972765e}; !- Layer 4

OS:StandardsInformation:Construction,
  {5f627da2-62bc-42c9-a779-d79eb8029792}, !- Handle
  {31dbe688-2c18-4d95-aa61-55d82cc540d8}, !- Construction Name
  ExteriorWall,                           !- Intended Surface Type
  Mass;                                   !- Standards Construction Type

OS:Material,
  {62c9d1c2-b969-49a5-b411-e0eb5d07410b}, !- Handle
  Wall Insulation [37],                   !- Name
  MediumRough,                            !- Roughness
  0.0680999999999999,                     !- Thickness {m}
  0.0432,                                 !- Conductivity {W/m-K}
  91,                                     !- Density {kg/m3}
  836.999999999999,                       !- Specific Heat {J/kg-K}
  0.9,                                    !- Thermal Absorptance
  0.5,                                    !- Solar Absorptance
  0.5;                                    !- Visible Absorptance

OS:Construction,
  {956e4631-1394-4902-b0d0-dbd9bfb2e20b}, !- Handle
  ASHRAE 189.1-2009 ExtWall Mass ClimateZone 5, !- Name
  ,                                       !- Surface Rendering Name
  {ba72e1a4-c47f-42ae-bd7c-9bfbdf937908}, !- Layer 1
  {913c78cf-4874-4d2d-9d1e-e7038adeb786}, !- Layer 2
  {9918ba6d-b9e9-4515-9533-5d2b1fc7e0f9}, !- Layer 3
  {250e1ee2-708e-4902-8a0b-c8227972765e}; !- Layer 4

OS:StandardsInformation:Construction,
  {fc1d55c2-e64e-4f6e-92eb-9ca9a018438f}, !- Handle
  {956e4631-1394-4902-b0d0-dbd9bfb2e20b}, !- Construction Name
  ExteriorWall,                           !- Intended Surface Type
  Mass;                                   !- Standards Construction Type

OS:Material,
  {9918ba6d-b9e9-4515-9533-5d2b1fc7e0f9}, !- Handle
  Wall Insulation [40],                   !- Name
  MediumRough,                            !- Roughness
  0.0793999999999999,                     !- Thickness {m}
  0.0432,                                 !- Conductivity {W/m-K}
  91,                                     !- Density {kg/m3}
  836.999999999999,                       !- Specific Heat {J/kg-K}
  0.9,                                    !- Thermal Absorptance
  0.5,                                    !- Solar Absorptance
  0.5;                                    !- Visible Absorptance

OS:Construction,
  {0f0d56ea-498a-4e90-ae01-2a0f55f3f5ae}, !- Handle
  ASHRAE 189.1-2009 ExtWall Mass ClimateZone 6, !- Name
  ,                                       !- Surface Rendering Name
  {ba72e1a4-c47f-42ae-bd7c-9bfbdf937908}, !- Layer 1
  {913c78cf-4874-4d2d-9d1e-e7038adeb786}, !- Layer 2
  {46dd1ec5-2dd3-4f01-95f2-d5107f90103e}, !- Layer 3
  {250e1ee2-708e-4902-8a0b-c8227972765e}; !- Layer 4

OS:StandardsInformation:Construction,
  {d10e4b78-ef19-42d2-943a-b3ce7d2df4e3}, !- Handle
  {0f0d56ea-498a-4e90-ae01-2a0f55f3f5ae}, !- Construction Name
  ExteriorWall,                           !- Intended Surface Type
  Mass;                                   !- Standards Construction Type

OS:Material,
  {46dd1ec5-2dd3-4f01-95f2-d5107f90103e}, !- Handle
  Wall Insulation [42],                   !- Name
  MediumRough,                            !- Roughness
  0.0913999999999999,                     !- Thickness {m}
  0.0432,                                 !- Conductivity {W/m-K}
  91,                                     !- Density {kg/m3}
  836.999999999999,                       !- Specific Heat {J/kg-K}
  0.9,                                    !- Thermal Absorptance
  0.5,                                    !- Solar Absorptance
  0.5;                                    !- Visible Absorptance

OS:Construction,
  {3e077449-92a6-49a9-b198-de2a2f4fb903}, !- Handle
  ASHRAE 189.1-2009 ExtWall Mass ClimateZone 7-8, !- Name
  ,                                       !- Surface Rendering Name
  {ba72e1a4-c47f-42ae-bd7c-9bfbdf937908}, !- Layer 1
  {913c78cf-4874-4d2d-9d1e-e7038adeb786}, !- Layer 2
  {f45fcbd6-59be-4985-aad3-66988bb0da40}, !- Layer 3
  {250e1ee2-708e-4902-8a0b-c8227972765e}; !- Layer 4

OS:StandardsInformation:Construction,
  {961869af-4d47-443d-8984-fa31afcf4b81}, !- Handle
  {3e077449-92a6-49a9-b198-de2a2f4fb903}, !- Construction Name
  ExteriorWall,                           !- Intended Surface Type
  Mass;                                   !- Standards Construction Type

OS:Material,
  {f45fcbd6-59be-4985-aad3-66988bb0da40}, !- Handle
  Wall Insulation [44],                   !- Name
  MediumRough,                            !- Roughness
  0.1104,                                 !- Thickness {m}
  0.0432,                                 !- Conductivity {W/m-K}
  91,                                     !- Density {kg/m3}
  836.999999999999,                       !- Specific Heat {J/kg-K}
  0.9,                                    !- Thermal Absorptance
  0.5,                                    !- Solar Absorptance
  0.5;                                    !- Visible Absorptance

OS:Construction,
  {a38044a5-a73e-4a61-ac2b-f27694c269ca}, !- Handle
  ASHRAE 189.1-2009 ExtWall Mass ClimateZone alt-res 1, !- Name
  ,                                       !- Surface Rendering Name
  {ba72e1a4-c47f-42ae-bd7c-9bfbdf937908}, !- Layer 1
  {913c78cf-4874-4d2d-9d1e-e7038adeb786}, !- Layer 2
  {3bc6d3fa-daf8-431d-bb89-72bdb1605859}, !- Layer 3
  {250e1ee2-708e-4902-8a0b-c8227972765e}; !- Layer 4

OS:StandardsInformation:Construction,
  {1403a6dc-8083-471d-8682-6dc4f1d3f165}, !- Handle
  {a38044a5-a73e-4a61-ac2b-f27694c269ca}, !- Construction Name
  ExteriorWall,                           !- Intended Surface Type
  Mass;                                   !- Standards Construction Type

OS:Construction,
  {f901232e-354f-40be-a574-bcd40706a653}, !- Handle
  ASHRAE 189.1-2009 ExtWall Mass ClimateZone alt-res 2, !- Name
  ,                                       !- Surface Rendering Name
  {ba72e1a4-c47f-42ae-bd7c-9bfbdf937908}, !- Layer 1
  {913c78cf-4874-4d2d-9d1e-e7038adeb786}, !- Layer 2
  {34710783-823f-488e-983a-ab99e1f95dfc}, !- Layer 3
  {250e1ee2-708e-4902-8a0b-c8227972765e}; !- Layer 4

OS:StandardsInformation:Construction,
  {df26ea21-f3ef-4484-b2e4-54bd42023d71}, !- Handle
  {f901232e-354f-40be-a574-bcd40706a653}, !- Construction Name
  ExteriorWall,                           !- Intended Surface Type
  Mass;                                   !- Standards Construction Type

OS:Construction,
  {94228f8e-f515-4a72-85bd-2248d5108f71}, !- Handle
  ASHRAE 189.1-2009 ExtWall Mass ClimateZone alt-res 3, !- Name
  ,                                       !- Surface Rendering Name
  {ba72e1a4-c47f-42ae-bd7c-9bfbdf937908}, !- Layer 1
  {913c78cf-4874-4d2d-9d1e-e7038adeb786}, !- Layer 2
  {62c9d1c2-b969-49a5-b411-e0eb5d07410b}, !- Layer 3
  {250e1ee2-708e-4902-8a0b-c8227972765e}; !- Layer 4

OS:StandardsInformation:Construction,
  {8eea62ed-30b1-4933-bba9-eb47b46735ec}, !- Handle
  {94228f8e-f515-4a72-85bd-2248d5108f71}, !- Construction Name
  ExteriorWall,                           !- Intended Surface Type
  Mass;                                   !- Standards Construction Type

OS:Construction,
  {3b84b7d7-9339-407f-b71e-bed485fc929f}, !- Handle
  ASHRAE 189.1-2009 ExtWall Mass ClimateZone alt-res 4, !- Name
  ,                                       !- Surface Rendering Name
  {ba72e1a4-c47f-42ae-bd7c-9bfbdf937908}, !- Layer 1
  {913c78cf-4874-4d2d-9d1e-e7038adeb786}, !- Layer 2
  {9918ba6d-b9e9-4515-9533-5d2b1fc7e0f9}, !- Layer 3
  {250e1ee2-708e-4902-8a0b-c8227972765e}; !- Layer 4

OS:StandardsInformation:Construction,
  {ffd8c5f0-f2e9-4f0c-a14f-43ddfde3c074}, !- Handle
  {3b84b7d7-9339-407f-b71e-bed485fc929f}, !- Construction Name
  ExteriorWall,                           !- Intended Surface Type
  Mass;                                   !- Standards Construction Type

OS:Construction,
  {895c7d7d-88b7-4de8-a25b-a2f43af1a5f2}, !- Handle
  ASHRAE 189.1-2009 ExtWall Mass ClimateZone alt-res 5, !- Name
  ,                                       !- Surface Rendering Name
  {ba72e1a4-c47f-42ae-bd7c-9bfbdf937908}, !- Layer 1
  {913c78cf-4874-4d2d-9d1e-e7038adeb786}, !- Layer 2
  {46dd1ec5-2dd3-4f01-95f2-d5107f90103e}, !- Layer 3
  {250e1ee2-708e-4902-8a0b-c8227972765e}; !- Layer 4

OS:StandardsInformation:Construction,
  {24262e8f-cf30-46e5-8d68-651026b5efb3}, !- Handle
  {895c7d7d-88b7-4de8-a25b-a2f43af1a5f2}, !- Construction Name
  ExteriorWall,                           !- Intended Surface Type
  Mass;                                   !- Standards Construction Type

OS:Construction,
  {a0b5b99a-ed15-4585-93f7-a29406121d27}, !- Handle
  ASHRAE 189.1-2009 ExtWall Mass ClimateZone alt-res 6, !- Name
  ,                                       !- Surface Rendering Name
  {ba72e1a4-c47f-42ae-bd7c-9bfbdf937908}, !- Layer 1
  {913c78cf-4874-4d2d-9d1e-e7038adeb786}, !- Layer 2
  {f45fcbd6-59be-4985-aad3-66988bb0da40}, !- Layer 3
  {250e1ee2-708e-4902-8a0b-c8227972765e}; !- Layer 4

OS:StandardsInformation:Construction,
  {b1c6ea85-2204-4e4b-b39a-38a94a76c56e}, !- Handle
  {a0b5b99a-ed15-4585-93f7-a29406121d27}, !- Construction Name
  ExteriorWall,                           !- Intended Surface Type
  Mass;                                   !- Standards Construction Type

OS:Construction,
  {fe005b99-c4a2-4183-9fc2-76b331e2eccc}, !- Handle
  ASHRAE 189.1-2009 ExtWall Mass ClimateZone alt-res 7, !- Name
  ,                                       !- Surface Rendering Name
  {ba72e1a4-c47f-42ae-bd7c-9bfbdf937908}, !- Layer 1
  {913c78cf-4874-4d2d-9d1e-e7038adeb786}, !- Layer 2
  {f45fcbd6-59be-4985-aad3-66988bb0da40}, !- Layer 3
  {250e1ee2-708e-4902-8a0b-c8227972765e}; !- Layer 4

OS:StandardsInformation:Construction,
  {8c253eb3-36dd-4839-b86c-7107c94f5176}, !- Handle
  {fe005b99-c4a2-4183-9fc2-76b331e2eccc}, !- Construction Name
  ExteriorWall,                           !- Intended Surface Type
  Mass;                                   !- Standards Construction Type

OS:Construction,
  {20fce4d4-991f-428d-992a-7b0cbb26384f}, !- Handle
  ASHRAE 189.1-2009 ExtWall Mass ClimateZone alt-res 8, !- Name