
OS:Version,
  {19133df9-a1d3-43c2-83fd-6cd099d5010b}, !- Handle
  1.3.3;                                  !- Version Identifier

OS:Construction,
  {d1209ede-e3e4-49d4-b3f1-662af0153ccd}, !- Handle
  ASHRAE 189.1-2009 AtticFloor ClimateZone 1-8, !- Name
  ,                                       !- Surface Rendering Name
  {30ceac84-f261-47ab-b2e5-1d7a0b531254}, !- Layer 1
  {2dc0187d-c6e2-4c49-9d65-52f8c85411e4}, !- Layer 2
  {30ceac84-f261-47ab-b2e5-1d7a0b531254}; !- Layer 3

OS:StandardsInformation:Construction,
  {429bc3d8-7f32-4f7d-8832-ece80fd3332b}, !- Handle
  {d1209ede-e3e4-49d4-b3f1-662af0153ccd}, !- Construction Name
  AtticFloor,                             !- Intended Surface Type
  WoodFramed;                             !- Standards Construction Type

OS:Material,
  {30ceac84-f261-47ab-b2e5-1d7a0b531254}, !- Handle
  1/2IN Gypsum,                           !- Name
  Smooth,                                 !- Roughness
  0.0127,                                 !- Thickness {m}
  0.16,                                   !- Conductivity {W/m-K}
  784.9,                                  !- Density {kg/m3}
  830.000000000001,                       !- Specific Heat {J/kg-K}
  0.9,                                    !- Thermal Absorptance
  0.4,                                    !- Solar Absorptance
  0.4;                                    !- Visible Absorptance

OS:Material,
  {2dc0187d-c6e2-4c49-9d65-52f8c85411e4}, !- Handle
  AtticFloor Insulation,                  !- Name
  MediumRough,                            !- Roughness
  0.2379,                                 !- Thickness {m}
  0.049,                                  !- Conductivity {W/m-K}
  265,                                    !- Density {kg/m3}
  836.800000000001,                       !- Specific Heat {J/kg-K}
  0.9,                                    !- Thermal Absorptance
  0.7,                                    !- Solar Absorptance
  0.7;                                    !- Visible Absorptance

OS:Construction,
  {91635edf-bbec-4c38-9489-c851b86fc405}, !- Handle
  ASHRAE 189.1-2009 ExtRoof IEAD ClimateZone 1, !- Name
  ,                                       !- Surface Rendering Name
  {617b1e08-4b43-4543-81cf-15d200e33dea}, !- Layer 1
  {9245926d-d0f6-4e88-ac6c-c36d75ce876a}, !- Layer 2
  {d9689fff-3d3c-4293-84e1-4e21b1594585}; !- Layer 3

OS:StandardsInformation:Construction,
  {526653bf-3c50-4b16-9af4-e2c856f6d253}, !- Handle
  {91635edf-bbec-4c38-9489-c851b86fc405}, !- Construction Name
  ExteriorRoof,                           !- Intended Surface Type
  IEAD;                                   !- Standards Construction Type

OS:Material,
  {617b1e08-4b43-4543-81cf-15d200e33dea}, !- Handle
  Roof Membrane,                          !- Name
  VeryRough,                              !- Roughness
  0.0095,                                 !- Thickness {m}
  0.16,                                   !- Conductivity {W/m-K}
  1121.29,                                !- Density {kg/m3}
  1460,                                   !- Specific Heat {J/kg-K}
  0.9,                                    !- Thermal Absorptance
  0.7,                                    !- Solar Absorptance
  0.7;                                    !- Visible Absorptance

OS:Material,
  {9245926d-d0f6-4e88-ac6c-c36d75ce876a}, !- Handle
  Roof Insulation [18],                   !- Name
  MediumRough,                            !- Roughness
  0.1693,                                 !- Thickness {m}
  0.049,                                  !- Conductivity {W/m-K}
  265,                                    !- Density {kg/m3}
  836.800000000001,                       !- Specific Heat {J/kg-K}
  0.9,                                    !- Thermal Absorptance
  0.7,                                    !- Solar Absorptance
  0.7;                                    !- Visible Absorptance

OS:Material,
  {d9689fff-3d3c-4293-84e1-4e21b1594585}, !- Handle
  Metal Decking,                          !- Name
  MediumSmooth,                           !- Roughness
  0.0015,                                 !- Thickness {m}
  45.006,                                 !- Conductivity {W/m-K}
  7680,                                   !- Density {kg/m3}
  418.4,                                  !- Specific Heat {J/kg-K}
  0.9,                                    !- Thermal Absorptance
  0.6,                                    !- Solar Absorptance
  0.6;                                    !- Visible Absorptance

OS:Construction,
  {eeb7b73b-7997-4b1b-ade9-ba85c3d4a7ea}, !- Handle
  ASHRAE 189.1-2009 ExtRoof IEAD ClimateZone 2-5, !- Name
  ,                                       !- Surface Rendering Name
  {617b1e08-4b43-4543-81cf-15d200e33dea}, !- Layer 1
  {282d0972-666f-4485-bfa5-e38deabc69b8}, !- Layer 2
  {d9689fff-3d3c-4293-84e1-4e21b1594585}; !- Layer 3

OS:StandardsInformation:Construction,
  {d8210938-2854-42ec-84a1-fc1dac234c8a}, !- Handle
  {eeb7b73b-7997-4b1b-ade9-ba85c3d4a7ea}, !- Construction Name
  ExteriorRoof,                           !- Intended Surface Type
  IEAD;                                   !- Standards Construction Type

OS:Material,
  {282d0972-666f-4485-bfa5-e38deabc69b8}, !- Handle
  Roof Insulation [21],                   !- Name
  MediumRough,                            !- Roughness
  0.2105,                                 !- Thickness {m}
  0.049,                                  !- Conductivity {W/m-K}
  265,                                    !- Density {kg/m3}
  836.800000000001,                       !- Specific Heat {J/kg-K}
  0.9,                                    !- Thermal Absorptance
  0.7,                                    !- Solar Absorptance
  0.7;                                    !- Visible Absorptance

OS:Construction,
  {7bd04314-188a-423a-af81-d52847a5fae1}, !- Handle
  ASHRAE 189.1-2009 ExtRoof IEAD ClimateZone 6, !- Name
  ,                                       !- Surface Rendering Name
  {617b1e08-4b43-4543-81cf-15d200e33dea}, !- Layer 1
  {0d3ba759-a461-4821-99c6-0897153756bf}, !- Layer 2
  {d9689fff-3d3c-4293-84e1-4e21b1594585}; !- Layer 3

OS:StandardsInformation:Construction,
  {94a26a4e-7c9a-40ab-bf51-075bc4745bc9}, !- Handle
  {7bd04314-188a-423a-af81-d52847a5fae1}, !- Construction Name
  ExteriorRoof,                           !- Intended Surface Type
  IEAD;                                   !- Standards Construction Type

OS:Material,
  {0d3ba759-a461-4821-99c6-0897153756bf}, !- Handle
  Roof Insulation [24],                   !- Name
  MediumRough,                            !- Roughness
  0.260100000000001,                      !- Thickness {m}
  0.049,                                  !- Conductivity {W/m-K}
  265,                                    !- Density {kg/m3}
  836.800000000001,                       !- Specific Heat {J/kg-K}
  0.9,                                    !- Thermal Absorptance
  0.7,                                    !- Solar Absorptance
  0.7;                                    !- Visible Absorptance

OS:Construction,
  {eeba3873-f95d-4e7f-ba91-cf65664d749b}, !- Handle
  ASHRAE 189.1-2009 ExtRoof IEAD ClimateZone 7-8, !- Name
  ,                                       !- Surface Rendering Name
  {617b1e08-4b43-4543-81cf-15d200e33dea}, !- Layer 1
  {fec28288-47f5-41c1-8bc0-543c29ea7e6f}, !- Layer 2
  {d9689fff-3d3c-4293-84e1-4e21b1594585}; !- Layer 3

OS:StandardsInformation:Construction,
  {5a45a500-e88c-43ec-8523-c997a76fae98}, !- Handle
  {eeba3873-f95d-4e7f-ba91-cf65664d749b}, !- Construction Name
  ExteriorRoof,                           !- Intended Surface Type
  IEAD;                                   !- Standards Construction Type

OS:Material,
  {fec28288-47f5-41c1-8bc0-543c29ea7e6f}, !- Handle
  Roof Insulation [26],                   !- Name
  MediumRough,                            !- Roughness
  0.2941,                                 !- Thickness {m}
  0.049,                                  !- Conductivity {W/m-K}
  265,                                    !- Density {kg/m3}
  836.800000000001,                       !- Specific Heat {J/kg-K}
  0.9,                                    !- Thermal Absorptance
  0.7,                                    !- Solar Absorptance
  0.7;                                    !- Visible Absorptance

OS:Construction,
  {e7402035-bdad-4b43-95eb-09d3d7c1662c}, !- Handle
  ASHRAE 189.1-2009 ExtRoof Metal ClimateZone 1, !- Name
  ,                                       !- Surface Rendering Name
  {490f3118-406c-4a30-93fb-77027c97140f}, !- Layer 1
  {236e83ff-332f-4740-b38a-0fd44c2b2ced}, !- Layer 2
  {d9689fff-3d3c-4293-84e1-4e21b1594585}; !- Layer 3

OS:StandardsInformation:Construction,
  {44b2348c-3dfb-455c-be0e-2c2a18d6a7e3}, !- Handle
  {e7402035-bdad-4b43-95eb-09d3d7c1662c}, !- Construction Name
  ExteriorRoof,                           !- Intended Surface Type
  Metal;                                  !- Standards Construction Type

OS:Material,
  {490f3118-406c-4a30-93fb-77027c97140f}, !- Handle
  Metal Roofing,                          !- Name
  MediumSmooth,                           !- Roughness
  0.0015,                                 !- Thickness {m}
  45.006,                                 !- Conductivity {W/m-K}
  7680,                                   !- Density {kg/m3}
  418.4,                                  !- Specific Heat {J/kg-K}
  0.9,                                    !- Thermal Absorptance
  0.6,                                    !- Solar Absorptance
  0.6;                                    !- Visible Absorptance

OS:Material,
  {236e83ff-332f-4740-b38a-0fd44c2b2ced}, !- Handle
  Roof Insulation [19],                   !- Name
  MediumRough,                            !- Roughness
  0.1868,                                 !- Thickness {m}
  0.049,                                  !- Conductivity {W/m-K}
  265,                                    !- Density {kg/m3}
  836.800000000001,                       !- Specific Heat {J/kg-K}
  0.9,                                    !- Thermal Absorptance
  0.7,                                    !- Solar Absorptance
  0.7;                                    !- Visible Absorptance

OS:Construction,
  {1eb476a2-6158-43ad-b788-0ce0e110b28e}, !- Handle
  ASHRAE 189.1-2009 ExtRoof Metal ClimateZone 2-5, !- Name
  ,                                       !- Surface Rendering Name
  {490f3118-406c-4a30-93fb-77027c97140f}, !- Layer 1
  {41e01083-d8da-4f3e-81a9-3ddeb3438987}, !- Layer 2
  {d9689fff-3d3c-4293-84e1-4e21b1594585}; !- Layer 3

OS:StandardsInformation:Construction,
  {7838605f-e7e3-483c-bda0-5f40299d534b}, !- Handle
  {1eb476a2-6158-43ad-b788-0ce0e110b28e}, !- Construction Name
  ExteriorRoof,                           !- Intended Surface Type
  Metal;                                  !- Standards Construction Type

OS:Material,
  {41e01083-d8da-4f3e-81a9-3ddeb3438987}, !- Handle
  Roof Insulation [22],                   !- Name
  MediumRough,                            !- Roughness
  0.2358,                                 !- Thickness {m}
  0.049,                                  !- Conductivity {W/m-K}
  265,                                    !- Density {kg/m3}
  836.800000000001,                       !- Specific Heat {J/kg-K}
  0.9,                                    !- Thermal Absorptance
  0.7,                                    !- Solar Absorptance
  0.7;                                    !- Visible Absorptance

OS:Construction,
  {b1fc9456-7015-4be7-90a1-01c14941fab4}, !- Handle
  ASHRAE 189.1-2009 ExtRoof Metal ClimateZone 6, !- Name
  ,                                       !- Surface Rendering Name
  {490f3118-406c-4a30-93fb-77027c97140f}, !- Layer 1
  {15418d56-ccdb-4e07-bbc1-bc9fae3fa1ae}, !- Layer 2
  {d9689fff-3d3c-4293-84e1-4e21b1594585}; !- Layer 3

OS:StandardsInformation:Construction,
  {33218d11-44b8-4010-add9-0ee264c170ae}, !- Handle
  {b1fc9456-7015-4be7-90a1-01c14941fab4}, !- Construction Name
  ExteriorRoof,                           !- Intended Surface Type
  Metal;                                  !- Standards Construction Type

OS:Material,
  {15418d56-ccdb-4e07-bbc1-bc9fae3fa1ae}, !- Handle
  Roof Insulation [25],                   !- Name
  MediumRough,                            !- Roughness
  0.263,                                  !- Thickness {m}
  0.049,                                  !- Conductivity {W/m-K}
  265,                                    !- Density {kg/m3}
  836.800000000001,                       !- Specific Heat {J/kg-K}
  0.9,                                    !- Thermal Absorptance
  0.7,                                    !- Solar Absorptance
  0.7;                                    !- Visible Absorptance

OS:Construction,
  {a8df6e66-8083-49f9-8adb-c55c5a95666c}, !- Handle
  ASHRAE 189.1-2009 ExtRoof Metal ClimateZone 7-8, !- Name
  ,                                       !- Surface Rendering Name
  {490f3118-406c-4a30-93fb-77027c97140f}, !- Layer 1
  {d8abe218-36c3-4a69-8868-751e4272c23d}, !- Layer 2
  {d9689fff-3d3c-4293-84e1-4e21b1594585}; !- Layer 3

OS:StandardsInformation:Construction,
  {64c1bee0-8f36-43c0-a5ef-044628b81214}, !- Handle
  {a8df6e66-8083-49f9-8adb-c55c5a95666c}, !- Construction Name
  ExteriorRoof,                           !- Intended Surface Type
  Metal;                                  !- Standards Construction Type

OS:Material,
  {d8abe218-36c3-4a69-8868-751e4272c23d}, !- Handle
  Roof Insulation [27],                   !- Name
  MediumRough,                            !- Roughness
  0.297000000000001,                      !- Thickness {m}
  0.049,                                  !- Conductivity {W/m-K}
  265,                                    !- Density {kg/m3}
  836.800000000001,                       !- Specific Heat {J/kg-K}
  0.9,                                    !- Thermal Absorptance
  0.7,                                    !- Solar Absorptance
  0.7;                                    !- Visible Absorptance

OS:Construction,
  {8f23a2c9-bb88-4997-9a62-328c88730612}, !- Handle
  ASHRAE 189.1-2009 ExtWall Mass ClimateZone 1, !- Name
  ,                                       !- Surface Rendering Name
  {0f7d3cb9-85eb-4bb1-9948-96624287ddfa}, !- Layer 1
  {bfe338b7-7ad8-4fe1-9761-055667a777b8}, !- Layer 2
  {efe7eb4f-d8f9-4169-af4b-3ba85f7ee3a5}, !- Layer 3
  {30ceac84-f261-47ab-b2e5-1d7a0b531254}; !- Layer 4

OS:StandardsInformation:Construction,
  {5ba076d4-1c75-42b4-bfe9-81726bf0f6b5}, !- Handle
  {8f23a2c9-bb88-4997-9a62-328c88730612}, !- Construction Name
  ExteriorWall,                           !- Intended Surface Type
  Mass;                                   !- Standards Construction Type

OS:Material,
  {0f7d3cb9-85eb-4bb1-9948-96624287ddfa}, !- Handle
  1IN Stucco,                             !- Name
  Smooth,                                 !- Roughness
  0.0253,                                 !- Thickness {m}
  0.691799999999999,                      !- Conductivity {W/m-K}
  1858,                                   !- Density {kg/m3}
  836.999999999999,                       !- Specific Heat {J/kg-K}
  0.9,                                    !- Thermal Absorptance
  0.92,                                   !- Solar Absorptance
  0.92;                                   !- Visible Absorptance

OS:Material,
  {bfe338b7-7ad8-4fe1-9761-055667a777b8}, !- Handle
  8IN Concrete HW,                        !- Name
  MediumRough,                            !- Roughness
  0.2033,                                 !- Thickness {m}
  1.72959999999999,                       !- Conductivity {W/m-K}
  2242.99999999999,                       !- Density {kg/m3}
  836.999999999999,                       !- Specific Heat {J/kg-K}
  0.9,                                    !- Thermal Absorptance
  0.65,                                   !- Solar Absorptance
  0.65;                                   !- Visible Absorptance

OS:Material,
  {efe7eb4f-d8f9-4169-af4b-3ba85f7ee3a5}, !- Handle
  Wall Insulation [31],                   !- Name
  MediumRough,                            !- Roughness
  0.0337000000000001,                     !- Thickness {m}
  0.0432,                                 !- Conductivity {W/m-K}
  91,                                     !- Density {kg/m3}
  836.999999999999,                       !- Specific Heat {J/kg-K}
  0.9,                                    !- Thermal Absorptance
  0.5,                                    !- Solar Absorptance
  0.5;                                    !- Visible Absorptance

OS:Construction,
  {b95b90d2-4e97-43a9-9b19-4b1293a916fd}, !- Handle
  ASHRAE 189.1-2009 ExtWall Mass ClimateZone 2, !- Name
  ,                                       !- Surface Rendering Name
  {0f7d3cb9-85eb-4bb1-9948-96624287ddfa}, !- Layer 1
  {bfe338b7-7ad8-4fe1-9761-055667a777b8}, !- Layer 2
  {f9627745-010d-454c-8db5-1b7c6c5a2a55}, !- Layer 3
  {30ceac84-f261-47ab-b2e5-1d7a0b531254}; !- Layer 4

OS:StandardsInformation:Construction,
  {064eaa8a-2bf1-4808-a96f-dcfad43ba843}, !- Handle
  {b95b90d2-4e97-43a9-9b19-4b1293a916fd}, !- Construction Name
  ExteriorWall,                           !- Intended Surface Type
  Mass;                                   !- Standards Construction Type

OS:Material,
  {f9627745-010d-454c-8db5-1b7c6c5a2a55}, !- Handle
  Wall Insulation [35],                   !- Name
  MediumRough,                            !- Roughness
  0.0452,                                 !- Thickness {m}
  0.0432,                                 !- Conductivity {W/m-K}
  91,                                     !- Density {kg/m3}
  836.999999999999,                       !- Specific Heat {J/kg-K}
  0.9,                                    !- Thermal Absorptance
  0.5,                                    !- Solar Absorptance
  0.5;                                    !- Visible Absorptance

OS:Construction,
  {ff7f7901-024c-4fc3-8370-9a0d453ff15f}, !- Handle
  ASHRAE 189.1-2009 ExtWall Mass ClimateZone 3, !- Name
  ,                                       !- Surface Rendering Name
  {0f7d3cb9-85eb-4bb1-9948-96624287ddfa}, !- Layer 1
  {bfe338b7-7ad8-4fe1-9761-055667a777b8}, !- Layer 2
  {f190c362-c4af-47c7-9a6d-0301203db7da}, !- Layer 3
  {30ceac84-f261-47ab-b2e5-1d7a0b531254}; !- Layer 4

OS:StandardsInformation:Construction,
  {6beedb5c-2561-4e3b-97d7-020da50b2432}, !- Handle
  {ff7f7901-024c-4fc3-8370-9a0d453ff15f}, !- Construction Name
  ExteriorWall,                           !- Intended Surface Type
  Mass;                                   !- Standards Construction Type

OS:Material,
  {f190c362-c4af-47c7-9a6d-0301203db7da}, !- Handle
  Wall Insulation [36],                   !- Name
  MediumRough,                            !- Roughness
  0.0565999999999999,                     !- Thickness {m}
  0.0432,                                 !- Conductivity {W/m-K}
  91,                                     !- Density {kg/m3}
  836.999999999999,                       !- Specific Heat {J/kg-K}
  0.9,                                    !- Thermal Absorptance
  0.5,                                    !- Solar Absorptance
  0.5;                                    !- Visible Absorptance

OS:Construction,
  {ffbe976a-b356-4e8b-9c9f-4f22e9afc206}, !- Handle
  ASHRAE 189.1-2009 ExtWall Mass ClimateZone 4, !- Name
  ,                                       !- Surface Rendering Name
  {0f7d3cb9-85eb-4bb1-9948-96624287ddfa}, !- Layer 1
  {bfe338b7-7ad8-4fe1-9761-055667a777b8}, !- Layer 2
  {870992eb-fdde-4b72-afc2-1c54ca8e294e}, !- Layer 3
  {30ceac84-f261-47ab-b2e5-1d7a0b531254}; !- Layer 4

OS:StandardsInformation:Construction,
  {9c1caf46-a5bd-4e5c-84ea-4a85b8e12f10}, !- Handle
  {ffbe976a-b356-4e8b-9c9f-4f22e9afc206}, !- Construction Name
  ExteriorWall,                           !- Intended Surface Type
  Mass;                                   !- Standards Construction Type

OS:Material,
  {870992eb-fdde-4b72-afc2-1c54ca8e294e}, !- Handle
  Wall Insulation [37],                   !- Name
  MediumRough,                            !- Roughness
  0.0680999999999999,                     !- Thickness {m}
  0.0432,                                 !- Conductivity {W/m-K}
  91,                                     !- Density {kg/m3}
  836.999999999999,                       !- Specific Heat {J/kg-K}
  0.9,                                    !- Thermal Absorptance
  0.5,                                    !- Solar Absorptance
  0.5;                                    !- Visible Absorptance

OS:Construction,
  {4a8fa3e6-ba4d-407c-89f6-211466134099}, !- Handle
  ASHRAE 189.1-2009 ExtWall Mass ClimateZone 5, !- Name
  ,                                       !- Surface Rendering Name
  {0f7d3cb9-85eb-4bb1-9948-96624287ddfa}, !- Layer 1
  {bfe338b7-7ad8-4fe1-9761-055667a777b8}, !- Layer 2
  {a30c07c3-f002-4167-a9bd-04dda696e1b3}, !- Layer 3
  {30ceac84-f261-47ab-b2e5-1d7a0b531254}; !- Layer 4

OS:StandardsInformation:Construction,
  {92121fee-2825-444d-988a-69d96329b26c}, !- Handle
  {4a8fa3e6-ba4d-407c-89f6-211466134099}, !- Construction Name
  ExteriorWall,                           !- Intended Surface Type
  Mass;                                   !- Standards Construction Type

OS:Material,
  {a30c07c3-f002-4167-a9bd-04dda696e1b3}, !- Handle
  Wall Insulation [40],                   !- Name
  MediumRough,                            !- Roughness
  0.0793999999999999,                     !- Thickness {m}
  0.0432,                                 !- Conductivity {W/m-K}
  91,                                     !- Density {kg/m3}
  836.999999999999,                       !- Specific Heat {J/kg-K}
  0.9,                                    !- Thermal Absorptance
  0.5,                                    !- Solar Absorptance
  0.5;                                    !- Visible Absorptance

OS:Construction,
  {acd5715a-bc0d-4ffc-b733-671ca0db7a14}, !- Handle
  ASHRAE 189.1-2009 ExtWall Mass ClimateZone 6, !- Name
  ,                                       !- Surface Rendering Name
  {0f7d3cb9-85eb-4bb1-9948-96624287ddfa}, !- Layer 1
  {bfe338b7-7ad8-4fe1-9761-055667a777b8}, !- Layer 2
  {4f329ceb-9c1c-47c0-8e2d-30e3e4011950}, !- Layer 3
  {30ceac84-f261-47ab-b2e5-1d7a0b531254}; !- Layer 4

OS:StandardsInformation:Construction,
  {7ec43a1e-88b3-4133-b082-cf5ddc2a2bfd}, !- Handle
  {acd5715a-bc0d-4ffc-b733-671ca0db7a14}, !- Construction Name
  ExteriorWall,                           !- Intended Surface Type
  Mass;                                   !- Standards Construction Type

OS:Material,
  {4f329ceb-9c1c-47c0-8e2d-30e3e4011950}, !- Handle
  Wall Insulation [42],                   !- Name
  MediumRough,                            !- Roughness
  0.0913999999999999,                     !- Thickness {m}
  0.0432,                                 !- Conductivity {W/m-K}
  91,                                     !- Density {kg/m3}
  836.999999999999,                       !- Specific Heat {J/kg-K}
  0.9,                                    !- Thermal Absorptance
  0.5,                                    !- Solar Absorptance
  0.5;                                    !- Visible Absorptance

OS:Construction,
  {3aedb6dd-1841-4abc-a455-0a86addd6851}, !- Handle
  ASHRAE 189.1-2009 ExtWall Mass ClimateZone 7-8, !- Name
  ,                                       !- Surface Rendering Name
  {0f7d3cb9-85eb-4bb1-9948-96624287ddfa}, !- Layer 1
  {bfe338b7-7ad8-4fe1-9761-055667a777b8}, !- Layer 2
  {28d1796f-a16e-496f-b570-defc924cacba}, !- Layer 3
  {30ceac84-f261-47ab-b2e5-1d7a0b531254}; !- Layer 4

OS:StandardsInformation:Construction,
  {07e1d88d-f788-4f02-b1aa-2eb39690462b}, !- Handle
  {3aedb6dd-1841-4abc-a455-0a86addd6851}, !- Construction Name
  ExteriorWall,                           !- Intended Surface Type
  Mass;                                   !- Standards Construction Type

OS:Material,
  {28d1796f-a16e-496f-b570-defc924cacba}, !- Handle
  Wall Insulation [44],                   !- Name
  MediumRough,                            !- Roughness
  0.1104,                                 !- Thickness {m}
  0.0432,                                 !- Conductivity {W/m-K}
  91,                                     !- Density {kg/m3}
  836.999999999999,                       !- Specific Heat {J/kg-K}
  0.9,                                    !- Thermal Absorptance
  0.5,                                    !- Solar Absorptance
  0.5;                                    !- Visible Absorptance

OS:Construction,
  {03b0661d-5c51-442d-b0eb-71e979993c2f}, !- Handle
  ASHRAE 189.1-2009 ExtWall Mass ClimateZone alt-res 1, !- Name
  ,                                       !- Surface Rendering Name
  {0f7d3cb9-85eb-4bb1-9948-96624287ddfa}, !- Layer 1
  {bfe338b7-7ad8-4fe1-9761-055667a777b8}, !- Layer 2
  {f9627745-010d-454c-8db5-1b7c6c5a2a55}, !- Layer 3
  {30ceac84-f261-47ab-b2e5-1d7a0b531254}; !- Layer 4

OS:StandardsInformation:Construction,
  {030f5401-80f5-409f-9f10-0df1daffe4e9}, !- Handle
  {03b0661d-5c51-442d-b0eb-71e979993c2f}, !- Construction Name
  ExteriorWall,                           !- Intended Surface Type
  Mass;                                   !- Standards Construction Type

OS:Construction,
  {cf0a1272-4317-48d0-8e57-5b6d0209b98d}, !- Handle
  ASHRAE 189.1-2009 ExtWall Mass ClimateZone alt-res 2, !- Name
  ,                                       !- Surface Rendering Name
  {0f7d3cb9-85eb-4bb1-9948-96624287ddfa}, !- Layer 1
  {bfe338b7-7ad8-4fe1-9761-055667a777b8}, !- Layer 2
  {f190c362-c4af-47c7-9a6d-0301203db7da}, !- Layer 3
  {30ceac84-f261-47ab-b2e5-1d7a0b531254}; !- Layer 4

OS:StandardsInformation:Construction,
  {66d72f49-f7b4-432c-8c26-f269b6b1dff3}, !- Handle
  {cf0a1272-4317-48d0-8e57-5b6d0209b98d}, !- Construction Name
  ExteriorWall,                           !- Intended Surface Type
  Mass;                                   !- Standards Construction Type

OS:Construction,
  {9e39d5f7-ead4-4929-bb74-a95ccd17ab54}, !- Handle
  ASHRAE 189.1-2009 ExtWall Mass ClimateZone alt-res 3, !- Name
  ,                                       !- Surface Rendering Name
  {0f7d3cb9-85eb-4bb1-9948-96624287ddfa}, !- Layer 1
  {bfe338b7-7ad8-4fe1-9761-055667a777b8}, !- Layer 2
  {870992eb-fdde-4b72-afc2-1c54ca8e294e}, !- Layer 3
  {30ceac84-f261-47ab-b2e5-1d7a0b531254}; !- Layer 4

OS:StandardsInformation:Construction,
  {2e112a56-621b-47a9-98f2-02488dae8698}, !- Handle
  {9e39d5f7-ead4-4929-bb74-a95ccd17ab54}, !- Construction Name
  ExteriorWall,                           !- Intended Surface Type
  Mass;                                   !- Standards Construction Type

OS:Construction,
  {0b0a60a8-f4f5-4409-bccf-2c082bc919dd}, !- Handle
  ASHRAE 189.1-2009 ExtWall Mass ClimateZone alt-res 4, !- Name
  ,                                       !- Surface Rendering Name
  {0f7d3cb9-85eb-4bb1-9948-96624287ddfa}, !- Layer 1
  {bfe338b7-7ad8-4fe1-9761-055667a777b8}, !- Layer 2
  {a30c07c3-f002-4167-a9bd-04dda696e1b3}, !- Layer 3
  {30ceac84-f261-47ab-b2e5-1d7a0b531254}; !- Layer 4

OS:StandardsInformation:Construction,
  {3aacf8f4-2e54-46df-a61f-74c2b1ee7f3e}, !- Handle
  {0b0a60a8-f4f5-4409-bccf-2c082bc919dd}, !- Construction Name
  ExteriorWall,                           !- Intended Surface Type
  Mass;                                   !- Standards Construction Type

OS:Construction,
  {070be5ec-dce7-4019-b39a-c5b5d21db1af}, !- Handle
  ASHRAE 189.1-2009 ExtWall Mass ClimateZone alt-res 5, !- Name
  ,                                       !- Surface Rendering Name
  {0f7d3cb9-85eb-4bb1-9948-96624287ddfa}, !- Layer 1
  {bfe338b7-7ad8-4fe1-9761-055667a777b8}, !- Layer 2
  {4f329ceb-9c1c-47c0-8e2d-30e3e4011950}, !- Layer 3
  {30ceac84-f261-47ab-b2e5-1d7a0b531254}; !- Layer 4

OS:StandardsInformation:Construction,
  {34ddb283-4444-4db9-b72c-05008715af29}, !- Handle
  {070be5ec-dce7-4019-b39a-c5b5d21db1af}, !- Construction Name
  ExteriorWall,                           !- Intended Surface Type
  Mass;                                   !- Standards Construction Type

OS:Construction,
  {0eaac684-35bf-4cf9-b574-6c9aaa07fbdf}, !- Handle
  ASHRAE 189.1-2009 ExtWall Mass ClimateZone alt-res 6, !- Name
  ,                                       !- Surface Rendering Name
  {0f7d3cb9-85eb-4bb1-9948-96624287ddfa}, !- Layer 1
  {bfe338b7-7ad8-4fe1-9761-055667a777b8}, !- Layer 2
  {28d1796f-a16e-496f-b570-defc924cacba}, !- Layer 3
  {30ceac84-f261-47ab-b2e5-1d7a0b531254}; !- Layer 4

OS:StandardsInformation:Construction,
  {b16fe3c3-d0d7-4d76-975e-407fdf3dd1f2}, !- Handle
  {0eaac684-35bf-4cf9-b574-6c9aaa07fbdf}, !- Construction Name
  ExteriorWall,                           !- Intended Surface Type
  Mass;                                   !- Standards Construction Type

OS:Construction,
  {3de02ea7-9cda-436d-8e12-47e7890e53ad}, !- Handle
  ASHRAE 189.1-2009 ExtWall Mass ClimateZone alt-res 7, !- Name
  ,                                       !- Surface Rendering Name
  {0f7d3cb9-85eb-4bb1-9948-96624287ddfa}, !- Layer 1
  {bfe338b7-7ad8-4fe1-9761-055667a777b8}, !- Layer 2
  {28d1796f-a16e-496f-b570-defc924cacba}, !- Layer 3
  {30ceac84-f261-47ab-b2e5-1d7a0b531254}; !- Layer 4

OS:StandardsInformation:Construction,
  {5d5204c7-361e-4220-bd34-93d3591e3fed}, !- Handle
  {3de02ea7-9cda-436d-8e12-47e7890e53ad}, !- Construction Name
  ExteriorWall,                           !- Intended Surface Type