
OS:Version,
  {b1ed4add-76e5-420a-947e-d58f87171ed5}, !- Handle
  1.2.3;                                  !- Version Identifier

OS:Construction,
  {f2bcbf3b-60b8-4cbe-8134-0e12d525227c}, !- Handle
  ASHRAE 189.1-2009 AtticFloor ClimateZone 1-8, !- Name
  ,                                       !- Surface Rendering Name
  {9a8e1035-476a-4800-bee2-dce1ca35b3aa}, !- Layer 1
  {285a2d75-15a7-43a5-9605-7025cb55ff27}, !- Layer 2
  {9a8e1035-476a-4800-bee2-dce1ca35b3aa}; !- Layer 3

OS:StandardsInformation:Construction,
  {8f0d56f2-ddb0-40c3-b6f3-e783ee28ac5d}, !- Handle
  {f2bcbf3b-60b8-4cbe-8134-0e12d525227c}, !- Construction Name
  AtticFloor,                             !- Intended Surface Type
  ASHRAE 189.1-2009;                      !- Standards Construction Type

OS:Material,
  {9a8e1035-476a-4800-bee2-dce1ca35b3aa}, !- Handle
  1/2IN Gypsum,                           !- Name
  Smooth,                                 !- Roughness
  0.0127,                                 !- Thickness {m}
  0.16,                                   !- Conductivity {W/m-K}
  784.9,                                  !- Density {kg/m3}
  830.000000000001,                       !- Specific Heat {J/kg-K}
  0.9,                                    !- Thermal Absorptance
  0.92,                                   !- Solar Absorptance
  0.92;                                   !- Visible Absorptance

OS:Material,
  {285a2d75-15a7-43a5-9605-7025cb55ff27}, !- Handle
  AtticFloor Insulation,                  !- Name
  MediumRough,                            !- Roughness
  0.2379,                                 !- Thickness {m}
  0.049,                                  !- Conductivity {W/m-K}
  265,                                    !- Density {kg/m3}
  836.800000000001,                       !- Specific Heat {J/kg-K}
  0.9,                                    !- Thermal Absorptance
  0.7,                                    !- Solar Absorptance
  0.7;                                    !- Visible Absorptance

OS:Construction,
  {42067f14-2bcd-4479-900f-d6e926960dfd}, !- Handle
  ASHRAE 189.1-2009 ExtRoof IEAD ClimateZone 1, !- Name
  ,                                       !- Surface Rendering Name
  {723bc561-bf20-4166-9927-666ed49e8cd5}, !- Layer 1
  {b9ad2f5c-00b2-49b5-be97-3124fa4b2003}, !- Layer 2
  {35b07f12-ec27-4f96-a648-d76f1abc4339}; !- Layer 3

OS:StandardsInformation:Construction,
  {b4d669cf-a92d-4ded-b2f3-d543aeae5aee}, !- Handle
  {42067f14-2bcd-4479-900f-d6e926960dfd}, !- Construction Name
  ExteriorRoof,                           !- Intended Surface Type
  ASHRAE 189.1-2009;                      !- Standards Construction Type

OS:Material,
  {723bc561-bf20-4166-9927-666ed49e8cd5}, !- Handle
  Roof Membrane,                          !- Name
  VeryRough,                              !- Roughness
  0.0095,                                 !- Thickness {m}
  0.16,                                   !- Conductivity {W/m-K}
  1121.29,                                !- Density {kg/m3}
  1460,                                   !- Specific Heat {J/kg-K}
  0.9,                                    !- Thermal Absorptance
  0.7,                                    !- Solar Absorptance
  0.7;                                    !- Visible Absorptance

OS:Material,
  {b9ad2f5c-00b2-49b5-be97-3124fa4b2003}, !- Handle
  Roof Insulation [18],                   !- Name
  MediumRough,                            !- Roughness
  0.1693,                                 !- Thickness {m}
  0.049,                                  !- Conductivity {W/m-K}
  265,                                    !- Density {kg/m3}
  836.800000000001,                       !- Specific Heat {J/kg-K}
  0.9,                                    !- Thermal Absorptance
  0.7,                                    !- Solar Absorptance
  0.7;                                    !- Visible Absorptance

OS:Material,
  {35b07f12-ec27-4f96-a648-d76f1abc4339}, !- Handle
  Metal Decking,                          !- Name
  MediumSmooth,                           !- Roughness
  0.0015,                                 !- Thickness {m}
  45.006,                                 !- Conductivity {W/m-K}
  7680,                                   !- Density {kg/m3}
  418.4,                                  !- Specific Heat {J/kg-K}
  0.9,                                    !- Thermal Absorptance
  0.7,                                    !- Solar Absorptance
  0.3;                                    !- Visible Absorptance

OS:Construction,
  {10c3f0c5-0a13-4a26-a34d-7e13e0a420af}, !- Handle
  ASHRAE 189.1-2009 ExtRoof IEAD ClimateZone 2-5, !- Name
  ,                                       !- Surface Rendering Name
  {723bc561-bf20-4166-9927-666ed49e8cd5}, !- Layer 1
  {7b929996-aa98-4481-928e-5eac7b7e0826}, !- Layer 2
  {35b07f12-ec27-4f96-a648-d76f1abc4339}; !- Layer 3

OS:StandardsInformation:Construction,
  {b0a2243c-532d-4380-a7e4-f36c4811fd0f}, !- Handle
  {10c3f0c5-0a13-4a26-a34d-7e13e0a420af}, !- Construction Name
  ExteriorRoof,                           !- Intended Surface Type
  ASHRAE 189.1-2009;                      !- Standards Construction Type

OS:Material,
  {7b929996-aa98-4481-928e-5eac7b7e0826}, !- Handle
  Roof Insulation [21],                   !- Name
  MediumRough,                            !- Roughness
  0.2105,                                 !- Thickness {m}
  0.049,                                  !- Conductivity {W/m-K}
  265,                                    !- Density {kg/m3}
  836.800000000001,                       !- Specific Heat {J/kg-K}
  0.9,                                    !- Thermal Absorptance
  0.7,                                    !- Solar Absorptance
  0.7;                                    !- Visible Absorptance

OS:Construction,
  {6dc2870d-a5a0-45c9-b5e7-1f151a2f9d20}, !- Handle
  ASHRAE 189.1-2009 ExtRoof IEAD ClimateZone 6, !- Name
  ,                                       !- Surface Rendering Name
  {723bc561-bf20-4166-9927-666ed49e8cd5}, !- Layer 1
  {b6f92fe6-8921-49f9-8762-a49590d572b6}, !- Layer 2
  {35b07f12-ec27-4f96-a648-d76f1abc4339}; !- Layer 3

OS:StandardsInformation:Construction,
  {bf622f7e-a63e-439c-9ed7-bd9a47bdb4f9}, !- Handle
  {6dc2870d-a5a0-45c9-b5e7-1f151a2f9d20}, !- Construction Name
  ExteriorRoof,                           !- Intended Surface Type
  ASHRAE 189.1-2009;                      !- Standards Construction Type

OS:Material,
  {b6f92fe6-8921-49f9-8762-a49590d572b6}, !- Handle
  Roof Insulation [24],                   !- Name
  MediumRough,                            !- Roughness
  0.260100000000001,                      !- Thickness {m}
  0.049,                                  !- Conductivity {W/m-K}
  265,                                    !- Density {kg/m3}
  836.800000000001,                       !- Specific Heat {J/kg-K}
  0.9,                                    !- Thermal Absorptance
  0.7,                                    !- Solar Absorptance
  0.7;                                    !- Visible Absorptance

OS:Construction,
  {bd9539da-3db3-4c30-81cf-e71bdb910507}, !- Handle
  ASHRAE 189.1-2009 ExtRoof IEAD ClimateZone 7-8, !- Name
  ,                                       !- Surface Rendering Name
  {723bc561-bf20-4166-9927-666ed49e8cd5}, !- Layer 1
  {866af679-ab68-4dda-91ec-2ae980347791}, !- Layer 2
  {35b07f12-ec27-4f96-a648-d76f1abc4339}; !- Layer 3

OS:StandardsInformation:Construction,
  {19e15987-419e-4116-a91f-de5f569b86d8}, !- Handle
  {bd9539da-3db3-4c30-81cf-e71bdb910507}, !- Construction Name
  ExteriorRoof,                           !- Intended Surface Type
  ASHRAE 189.1-2009;                      !- Standards Construction Type

OS:Material,
  {866af679-ab68-4dda-91ec-2ae980347791}, !- Handle
  Roof Insulation [26],                   !- Name
  MediumRough,                            !- Roughness
  0.2941,                                 !- Thickness {m}
  0.049,                                  !- Conductivity {W/m-K}
  265,                                    !- Density {kg/m3}
  836.800000000001,                       !- Specific Heat {J/kg-K}
  0.9,                                    !- Thermal Absorptance
  0.7,                                    !- Solar Absorptance
  0.7;                                    !- Visible Absorptance

OS:Construction,
  {9b994a38-b3bc-49f1-b81f-107a89e38a84}, !- Handle
  ASHRAE 189.1-2009 ExtRoof Metal ClimateZone 1, !- Name
  ,                                       !- Surface Rendering Name
  {3a5531c5-d5dc-444f-84dd-04919c112fa2}, !- Layer 1
  {6e7a626a-66e8-4659-b355-e13d4f8c0dff}; !- Layer 2

OS:StandardsInformation:Construction,
  {8017c94c-9e52-4c56-aa9c-af8099e14006}, !- Handle
  {9b994a38-b3bc-49f1-b81f-107a89e38a84}, !- Construction Name
  ExteriorRoof,                           !- Intended Surface Type
  ASHRAE 189.1-2009;                      !- Standards Construction Type

OS:Material,
  {3a5531c5-d5dc-444f-84dd-04919c112fa2}, !- Handle
  Metal Roofing,                          !- Name
  MediumSmooth,                           !- Roughness
  0.0015,                                 !- Thickness {m}
  45.006,                                 !- Conductivity {W/m-K}
  7680,                                   !- Density {kg/m3}
  418.4,                                  !- Specific Heat {J/kg-K}
  0.9,                                    !- Thermal Absorptance
  0.3,                                    !- Solar Absorptance
  0.3;                                    !- Visible Absorptance

OS:Material,
  {6e7a626a-66e8-4659-b355-e13d4f8c0dff}, !- Handle
  Roof Insulation [19],                   !- Name
  MediumRough,                            !- Roughness
  0.1868,                                 !- Thickness {m}
  0.049,                                  !- Conductivity {W/m-K}
  265,                                    !- Density {kg/m3}
  836.800000000001,                       !- Specific Heat {J/kg-K}
  0.9,                                    !- Thermal Absorptance
  0.7,                                    !- Solar Absorptance
  0.7;                                    !- Visible Absorptance

OS:Construction,
  {0638fde8-b3b7-42f7-b03b-015851da5961}, !- Handle
  ASHRAE 189.1-2009 ExtRoof Metal ClimateZone 2-5, !- Name
  ,                                       !- Surface Rendering Name
  {3a5531c5-d5dc-444f-84dd-04919c112fa2}, !- Layer 1
  {3ec9e044-afa2-4efa-b47d-9192743b5994}; !- Layer 2

OS:StandardsInformation:Construction,
  {a9a90cc5-465a-439b-a787-fa9ea74a6dd8}, !- Handle
  {0638fde8-b3b7-42f7-b03b-015851da5961}, !- Construction Name
  ExteriorRoof,                           !- Intended Surface Type
  ASHRAE 189.1-2009;                      !- Standards Construction Type

OS:Material,
  {3ec9e044-afa2-4efa-b47d-9192743b5994}, !- Handle
  Roof Insulation [22],                   !- Name
  MediumRough,                            !- Roughness
  0.2358,                                 !- Thickness {m}
  0.049,                                  !- Conductivity {W/m-K}
  265,                                    !- Density {kg/m3}
  836.800000000001,                       !- Specific Heat {J/kg-K}
  0.9,                                    !- Thermal Absorptance
  0.7,                                    !- Solar Absorptance
  0.7;                                    !- Visible Absorptance

OS:Construction,
  {02a3bbbf-257e-40ab-9de1-b8566b598531}, !- Handle
  ASHRAE 189.1-2009 ExtRoof Metal ClimateZone 6, !- Name
  ,                                       !- Surface Rendering Name
  {3a5531c5-d5dc-444f-84dd-04919c112fa2}, !- Layer 1
  {b72a7ca8-4d8e-4e05-8d82-02f1ed649e6a}; !- Layer 2

OS:StandardsInformation:Construction,
  {169c2655-dee8-4a2f-abcf-10f73239c771}, !- Handle
  {02a3bbbf-257e-40ab-9de1-b8566b598531}, !- Construction Name
  ExteriorRoof,                           !- Intended Surface Type
  ASHRAE 189.1-2009;                      !- Standards Construction Type

OS:Material,
  {b72a7ca8-4d8e-4e05-8d82-02f1ed649e6a}, !- Handle
  Roof Insulation [25],                   !- Name
  MediumRough,                            !- Roughness
  0.263,                                  !- Thickness {m}
  0.049,                                  !- Conductivity {W/m-K}
  265,                                    !- Density {kg/m3}
  836.800000000001,                       !- Specific Heat {J/kg-K}
  0.9,                                    !- Thermal Absorptance
  0.7,                                    !- Solar Absorptance
  0.7;                                    !- Visible Absorptance

OS:Construction,
  {710a1174-2e96-4414-9eac-1f30398a2a4b}, !- Handle
  ASHRAE 189.1-2009 ExtRoof Metal ClimateZone 7-8, !- Name
  ,                                       !- Surface Rendering Name
  {3a5531c5-d5dc-444f-84dd-04919c112fa2}, !- Layer 1
  {8d9ab975-296a-49bd-8f6e-de5cface3c36}; !- Layer 2

OS:StandardsInformation:Construction,
  {8a79e471-78b8-4e6f-9b41-acaac1bd6a33}, !- Handle
  {710a1174-2e96-4414-9eac-1f30398a2a4b}, !- Construction Name
  ExteriorRoof,                           !- Intended Surface Type
  ASHRAE 189.1-2009;                      !- Standards Construction Type

OS:Material,
  {8d9ab975-296a-49bd-8f6e-de5cface3c36}, !- Handle
  Roof Insulation [27],                   !- Name
  MediumRough,                            !- Roughness
  0.297000000000001,                      !- Thickness {m}
  0.049,                                  !- Conductivity {W/m-K}
  265,                                    !- Density {kg/m3}
  836.800000000001,                       !- Specific Heat {J/kg-K}
  0.9,                                    !- Thermal Absorptance
  0.7,                                    !- Solar Absorptance
  0.7;                                    !- Visible Absorptance

OS:Construction,
  {48f49819-e8d0-4497-b79e-273e146effb8}, !- Handle
  ASHRAE 189.1-2009 ExtWall Mass ClimateZone 1, !- Name
  ,                                       !- Surface Rendering Name
  {c033fe7e-36ef-4a7b-827f-d089a74598fa}, !- Layer 1
  {db4d1458-3c5a-4f9d-8157-9624ba7e0541}, !- Layer 2
  {ba371d36-618f-49ce-9c21-7e7ce96a1898}, !- Layer 3
  {9a8e1035-476a-4800-bee2-dce1ca35b3aa}; !- Layer 4

OS:StandardsInformation:Construction,
  {883d67e9-dec3-48c1-9ec4-1f51c7d2af32}, !- Handle
  {48f49819-e8d0-4497-b79e-273e146effb8}, !- Construction Name
  ExteriorWall,                           !- Intended Surface Type
  ASHRAE 189.1-2009;                      !- Standards Construction Type

OS:Material,
  {c033fe7e-36ef-4a7b-827f-d089a74598fa}, !- Handle
  1IN Stucco,                             !- Name
  Smooth,                                 !- Roughness
  0.0253,                                 !- Thickness {m}
  0.691799999999999,                      !- Conductivity {W/m-K}
  1858,                                   !- Density {kg/m3}
  836.999999999999,                       !- Specific Heat {J/kg-K}
  0.9,                                    !- Thermal Absorptance
  0.92,                                   !- Solar Absorptance
  0.92;                                   !- Visible Absorptance

OS:Material,
  {db4d1458-3c5a-4f9d-8157-9624ba7e0541}, !- Handle
  8IN Concrete HW,                        !- Name
  MediumRough,                            !- Roughness
  0.2033,                                 !- Thickness {m}
  1.72959999999999,                       !- Conductivity {W/m-K}
  2242.99999999999,                       !- Density {kg/m3}
  836.999999999999,                       !- Specific Heat {J/kg-K}
  0.9,                                    !- Thermal Absorptance
  0.65,                                   !- Solar Absorptance
  0.65;                                   !- Visible Absorptance

OS:Material,
  {ba371d36-618f-49ce-9c21-7e7ce96a1898}, !- Handle
  Wall Insulation [31],                   !- Name
  MediumRough,                            !- Roughness
  0.0337000000000001,                     !- Thickness {m}
  0.0432,                                 !- Conductivity {W/m-K}
  91,                                     !- Density {kg/m3}
  836.999999999999,                       !- Specific Heat {J/kg-K}
  0.9,                                    !- Thermal Absorptance
  0.5,                                    !- Solar Absorptance
  0.5;                                    !- Visible Absorptance

OS:Construction,
  {195a1c40-3e7e-4e35-a874-e4b50f3ff292}, !- Handle
  ASHRAE 189.1-2009 ExtWall Mass ClimateZone 2, !- Name
  ,                                       !- Surface Rendering Name
  {c033fe7e-36ef-4a7b-827f-d089a74598fa}, !- Layer 1
  {db4d1458-3c5a-4f9d-8157-9624ba7e0541}, !- Layer 2
  {01082af0-d03e-4029-8d84-e3f4b6a9f920}, !- Layer 3
  {9a8e1035-476a-4800-bee2-dce1ca35b3aa}; !- Layer 4

OS:StandardsInformation:Construction,
  {f338fa07-631f-443d-9073-9b7df5e59678}, !- Handle
  {195a1c40-3e7e-4e35-a874-e4b50f3ff292}, !- Construction Name
  ExteriorWall,                           !- Intended Surface Type
  ASHRAE 189.1-2009;                      !- Standards Construction Type

OS:Material,
  {01082af0-d03e-4029-8d84-e3f4b6a9f920}, !- Handle
  Wall Insulation [35],                   !- Name
  MediumRough,                            !- Roughness
  0.0452,                                 !- Thickness {m}
  0.0432,                                 !- Conductivity {W/m-K}
  91,                                     !- Density {kg/m3}
  836.999999999999,                       !- Specific Heat {J/kg-K}
  0.9,                                    !- Thermal Absorptance
  0.5,                                    !- Solar Absorptance
  0.5;                                    !- Visible Absorptance

OS:Construction,
  {fe9c3d3d-e12b-4ef4-a153-9798bc10ee93}, !- Handle
  ASHRAE 189.1-2009 ExtWall Mass ClimateZone 3, !- Name
  ,                                       !- Surface Rendering Name
  {c033fe7e-36ef-4a7b-827f-d089a74598fa}, !- Layer 1
  {db4d1458-3c5a-4f9d-8157-9624ba7e0541}, !- Layer 2
  {445624e3-13db-4342-8927-e5166eed4ba5}, !- Layer 3
  {9a8e1035-476a-4800-bee2-dce1ca35b3aa}; !- Layer 4

OS:StandardsInformation:Construction,
  {d360a91a-c72c-45fc-9123-51bb2ee33f51}, !- Handle
  {fe9c3d3d-e12b-4ef4-a153-9798bc10ee93}, !- Construction Name
  ExteriorWall,                           !- Intended Surface Type
  ASHRAE 189.1-2009;                      !- Standards Construction Type

OS:Material,
  {445624e3-13db-4342-8927-e5166eed4ba5}, !- Handle
  Wall Insulation [36],                   !- Name
  MediumRough,                            !- Roughness
  0.0565999999999999,                     !- Thickness {m}
  0.0432,                                 !- Conductivity {W/m-K}
  91,                                     !- Density {kg/m3}
  836.999999999999,                       !- Specific Heat {J/kg-K}
  0.9,                                    !- Thermal Absorptance
  0.5,                                    !- Solar Absorptance
  0.5;                                    !- Visible Absorptance

OS:Construction,
  {433ffc01-2978-419f-85b1-9bd7a4ae3595}, !- Handle
  ASHRAE 189.1-2009 ExtWall Mass ClimateZone 4, !- Name
  ,                                       !- Surface Rendering Name
  {c033fe7e-36ef-4a7b-827f-d089a74598fa}, !- Layer 1
  {db4d1458-3c5a-4f9d-8157-9624ba7e0541}, !- Layer 2
  {c46c034a-c9c7-42df-8c77-1b2466842a06}, !- Layer 3
  {9a8e1035-476a-4800-bee2-dce1ca35b3aa}; !- Layer 4

OS:StandardsInformation:Construction,
  {9dd623c4-3a69-4649-912a-d6478e6c4a75}, !- Handle
  {433ffc01-2978-419f-85b1-9bd7a4ae3595}, !- Construction Name
  ExteriorWall,                           !- Intended Surface Type
  ASHRAE 189.1-2009;                      !- Standards Construction Type

OS:Material,
  {c46c034a-c9c7-42df-8c77-1b2466842a06}, !- Handle
  Wall Insulation [37],                   !- Name
  MediumRough,                            !- Roughness
  0.0680999999999999,                     !- Thickness {m}
  0.0432,                                 !- Conductivity {W/m-K}
  91,                                     !- Density {kg/m3}
  836.999999999999,                       !- Specific Heat {J/kg-K}
  0.9,                                    !- Thermal Absorptance
  0.5,                                    !- Solar Absorptance
  0.5;                                    !- Visible Absorptance

OS:Construction,
  {8b996abb-bb8c-4ec1-bd7b-45af64452661}, !- Handle
  ASHRAE 189.1-2009 ExtWall Mass ClimateZone 5, !- Name
  ,                                       !- Surface Rendering Name
  {c033fe7e-36ef-4a7b-827f-d089a74598fa}, !- Layer 1
  {db4d1458-3c5a-4f9d-8157-9624ba7e0541}, !- Layer 2
  {e6a76d24-f079-48e7-8a45-4ab1ae8c525c}, !- Layer 3
  {9a8e1035-476a-4800-bee2-dce1ca35b3aa}; !- Layer 4

OS:StandardsInformation:Construction,
  {8117471e-9c4c-4ce0-9b48-1169e011099a}, !- Handle
  {8b996abb-bb8c-4ec1-bd7b-45af64452661}, !- Construction Name
  ExteriorWall,                           !- Intended Surface Type
  ASHRAE 189.1-2009;                      !- Standards Construction Type

OS:Material,
  {e6a76d24-f079-48e7-8a45-4ab1ae8c525c}, !- Handle
  Wall Insulation [40],                   !- Name
  MediumRough,                            !- Roughness
  0.0793999999999999,                     !- Thickness {m}
  0.0432,                                 !- Conductivity {W/m-K}
  91,                                     !- Density {kg/m3}
  836.999999999999,                       !- Specific Heat {J/kg-K}
  0.9,                                    !- Thermal Absorptance
  0.5,                                    !- Solar Absorptance
  0.5;                                    !- Visible Absorptance

OS:Construction,
  {026d92be-a152-4829-a0c8-a8a61d49d93d}, !- Handle
  ASHRAE 189.1-2009 ExtWall Mass ClimateZone 6, !- Name
  ,                                       !- Surface Rendering Name
  {c033fe7e-36ef-4a7b-827f-d089a74598fa}, !- Layer 1
  {db4d1458-3c5a-4f9d-8157-9624ba7e0541}, !- Layer 2
  {e297e0ee-7407-4c40-b917-b0cbb2a13a3f}, !- Layer 3
  {9a8e1035-476a-4800-bee2-dce1ca35b3aa}; !- Layer 4

OS:StandardsInformation:Construction,
  {fb429906-7990-4270-8c8f-1e17ee06b698}, !- Handle
  {026d92be-a152-4829-a0c8-a8a61d49d93d}, !- Construction Name
  ExteriorWall,                           !- Intended Surface Type
  ASHRAE 189.1-2009;                      !- Standards Construction Type

OS:Material,
  {e297e0ee-7407-4c40-b917-b0cbb2a13a3f}, !- Handle
  Wall Insulation [42],                   !- Name
  MediumRough,                            !- Roughness
  0.0913999999999999,                     !- Thickness {m}
  0.0432,                                 !- Conductivity {W/m-K}
  91,                                     !- Density {kg/m3}
  836.999999999999,                       !- Specific Heat {J/kg-K}
  0.9,                                    !- Thermal Absorptance
  0.5,                                    !- Solar Absorptance
  0.5;                                    !- Visible Absorptance

OS:Construction,
  {040609be-9cd1-4270-b1e2-5003455c2706}, !- Handle
  ASHRAE 189.1-2009 ExtWall Mass ClimateZone 7-8, !- Name
  ,                                       !- Surface Rendering Name
  {c033fe7e-36ef-4a7b-827f-d089a74598fa}, !- Layer 1
  {db4d1458-3c5a-4f9d-8157-9624ba7e0541}, !- Layer 2
  {10be506f-ed01-49c1-b94e-9da7390aa2e3}, !- Layer 3
  {9a8e1035-476a-4800-bee2-dce1ca35b3aa}; !- Layer 4

OS:StandardsInformation:Construction,
  {92043671-c6d4-4ce4-b0f3-c818de792fc7}, !- Handle
  {040609be-9cd1-4270-b1e2-5003455c2706}, !- Construction Name
  ExteriorWall,                           !- Intended Surface Type
  ASHRAE 189.1-2009;                      !- Standards Construction Type

OS:Material,
  {10be506f-ed01-49c1-b94e-9da7390aa2e3}, !- Handle
  Wall Insulation [44],                   !- Name
  MediumRough,                            !- Roughness
  0.1104,                                 !- Thickness {m}
  0.0432,                                 !- Conductivity {W/m-K}
  91,                                     !- Density {kg/m3}
  836.999999999999,                       !- Specific Heat {J/kg-K}
  0.9,                                    !- Thermal Absorptance
  0.5,                                    !- Solar Absorptance
  0.5;                                    !- Visible Absorptance

OS:Construction,
  {4b71d367-c1de-4230-9a98-f5f2dced4c8f}, !- Handle
  ASHRAE 189.1-2009 ExtWall Mass ClimateZone alt-res 1, !- Name
  ,                                       !- Surface Rendering Name
  {c033fe7e-36ef-4a7b-827f-d089a74598fa}, !- Layer 1
  {db4d1458-3c5a-4f9d-8157-9624ba7e0541}, !- Layer 2
  {01082af0-d03e-4029-8d84-e3f4b6a9f920}, !- Layer 3
  {9a8e1035-476a-4800-bee2-dce1ca35b3aa}; !- Layer 4

OS:StandardsInformation:Construction,
  {fed342ee-1cf9-49fc-82dd-172c26824919}, !- Handle
  {4b71d367-c1de-4230-9a98-f5f2dced4c8f}, !- Construction Name
  ExteriorWall,                           !- Intended Surface Type
  ASHRAE 189.1-2009;                      !- Standards Construction Type

OS:Construction,
  {98c92aa2-97b9-4a92-93df-262c9e1b9aac}, !- Handle
  ASHRAE 189.1-2009 ExtWall Mass ClimateZone alt-res 2, !- Name
  ,                                       !- Surface Rendering Name
  {c033fe7e-36ef-4a7b-827f-d089a74598fa}, !- Layer 1
  {db4d1458-3c5a-4f9d-8157-9624ba7e0541}, !- Layer 2
  {445624e3-13db-4342-8927-e5166eed4ba5}, !- Layer 3
  {9a8e1035-476a-4800-bee2-dce1ca35b3aa}; !- Layer 4

OS:StandardsInformation:Construction,
  {6a5ac53a-d9b2-46a4-aefe-11996456c4fe}, !- Handle
  {98c92aa2-97b9-4a92-93df-262c9e1b9aac}, !- Construction Name
  ExteriorWall,                           !- Intended Surface Type
  ASHRAE 189.1-2009;                      !- Standards Construction Type

OS:Construction,
  {aa5ca827-2479-411c-969d-8839cd4a9714}, !- Handle
  ASHRAE 189.1-2009 ExtWall Mass ClimateZone alt-res 3, !- Name
  ,                                       !- Surface Rendering Name
  {c033fe7e-36ef-4a7b-827f-d089a74598fa}, !- Layer 1
  {db4d1458-3c5a-4f9d-8157-9624ba7e0541}, !- Layer 2
  {c46c034a-c9c7-42df-8c77-1b2466842a06}, !- Layer 3
  {9a8e1035-476a-4800-bee2-dce1ca35b3aa}; !- Layer 4

OS:StandardsInformation:Construction,
  {8e101c23-1cc4-4640-8d89-4a70d5cb7df4}, !- Handle
  {aa5ca827-2479-411c-969d-8839cd4a9714}, !- Construction Name
  ExteriorWall,                           !- Intended Surface Type
  ASHRAE 189.1-2009;                      !- Standards Construction Type

OS:Construction,
  {fd69b25a-310c-4eda-9f09-999b39c0251e}, !- Handle
  ASHRAE 189.1-2009 ExtWall Mass ClimateZone alt-res 4, !- Name
  ,                                       !- Surface Rendering Name
  {c033fe7e-36ef-4a7b-827f-d089a74598fa}, !- Layer 1
  {db4d1458-3c5a-4f9d-8157-9624ba7e0541}, !- Layer 2
  {e6a76d24-f079-48e7-8a45-4ab1ae8c525c}, !- Layer 3
  {9a8e1035-476a-4800-bee2-dce1ca35b3aa}; !- Layer 4

OS:StandardsInformation:Construction,
  {e0165ae9-6e4a-423f-bb14-ebdbf781191a}, !- Handle
  {fd69b25a-310c-4eda-9f09-999b39c0251e}, !- Construction Name
  ExteriorWall,                           !- Intended Surface Type
  ASHRAE 189.1-2009;                      !- Standards Construction Type

OS:Construction,
  {654f121a-1099-45d6-932c-8e1e3f6111e8}, !- Handle
  ASHRAE 189.1-2009 ExtWall Mass ClimateZone alt-res 5, !- Name
  ,                                       !- Surface Rendering Name
  {c033fe7e-36ef-4a7b-827f-d089a74598fa}, !- Layer 1
  {db4d1458-3c5a-4f9d-8157-9624ba7e0541}, !- Layer 2
  {e297e0ee-7407-4c40-b917-b0cbb2a13a3f}, !- Layer 3
  {9a8e1035-476a-4800-bee2-dce1ca35b3aa}; !- Layer 4

OS:StandardsInformation:Construction,
  {15242f91-74f8-4c60-b7c0-d3e3b37efb21}, !- Handle
  {654f121a-1099-45d6-932c-8e1e3f6111e8}, !- Construction Name
  ExteriorWall,                           !- Intended Surface Type
  ASHRAE 189.1-2009;                      !- Standards Construction Type

OS:Construction,
  {1b9740a2-0545-40c9-b52d-06eafbe32ec4}, !- Handle
  ASHRAE 189.1-2009 ExtWall Mass ClimateZone alt-res 6, !- Name
  ,                                       !- Surface Rendering Name
  {c033fe7e-36ef-4a7b-827f-d089a74598fa}, !- Layer 1
  {db4d1458-3c5a-4f9d-8157-9624ba7e0541}, !- Layer 2
  {10be506f-ed01-49c1-b94e-9da7390aa2e3}, !- Layer 3
  {9a8e1035-476a-4800-bee2-dce1ca35b3aa}; !- Layer 4

OS:StandardsInformation:Construction,
  {28fe5f7d-ebd1-4c97-b2c7-dccf2ffe086d}, !- Handle
  {1b9740a2-0545-40c9-b52d-06eafbe32ec4}, !- Construction Name
  ExteriorWall,                           !- Intended Surface Type
  ASHRAE 189.1-2009;                      !- Standards Construction Type

OS:Construction,
  {57622791-6174-4633-8bca-fc280ab07c7d}, !- Handle
  ASHRAE 189.1-2009 ExtWall Mass ClimateZone alt-res 7, !- Name
  ,                                       !- Surface Rendering Name
  {c033fe7e-36ef-4a7b-827f-d089a74598fa}, !- Layer 1
  {db4d1458-3c5a-4f9d-8157-9624ba7e0541}, !- Layer 2
  {10be506f-ed01-49c1-b94e-9da7390aa2e3}, !- Layer 3
  {9a8e1035-476a-4800-bee2-dce1ca35b3aa}; !- Layer 4

OS:StandardsInformation:Construction,
  {585af63e-004d-4f65-9805-6ba21c2551a7}, !- Handle
  {57622791-6174-4633-8bca-fc280ab07c7d}, !- Construction Name
  ExteriorWall,                           !- Intended Surface Type
  ASHRAE 189.1-2009;                      !- Standards Construction Type

OS:Construction,
  {302d4ceb-262e-4eb0-8c29-7c44879e066d}, !- Handle
  ASHRAE 189.1-2009 ExtWall Mass ClimateZone alt-res 8, !- Name