
OS:Version,
  {00be4d0b-60c1-447f-8c8d-c3fe206cefa8}, !- Handle
  1.3.3;                                  !- Version Identifier

OS:Construction,
  {73416194-5c30-4fc5-b75c-065be3a09138}, !- Handle
  ASHRAE 189.1-2009 AtticFloor ClimateZone 1-8, !- Name
  ,                                       !- Surface Rendering Name
  {b6233025-30c5-4e1c-8b80-84992ed3b032}, !- Layer 1
  {6628640c-61ea-4235-8545-cfca229d18b8}, !- Layer 2
  {b6233025-30c5-4e1c-8b80-84992ed3b032}; !- Layer 3

OS:StandardsInformation:Construction,
  {c6d42d6b-20b3-4bf8-b47e-a71001a8d45e}, !- Handle
  {73416194-5c30-4fc5-b75c-065be3a09138}, !- Construction Name
  AtticFloor,                             !- Intended Surface Type
  WoodFramed;                             !- Standards Construction Type

OS:Material,
  {b6233025-30c5-4e1c-8b80-84992ed3b032}, !- Handle
  1/2IN Gypsum,                           !- Name
  Smooth,                                 !- Roughness
  0.0127,                                 !- Thickness {m}
  0.16,                                   !- Conductivity {W/m-K}
  784.9,                                  !- Density {kg/m3}
  830.000000000001,                       !- Specific Heat {J/kg-K}
  0.9,                                    !- Thermal Absorptance
  0.92,                                   !- Solar Absorptance
  0.92;                                   !- Visible Absorptance

OS:Material,
  {6628640c-61ea-4235-8545-cfca229d18b8}, !- Handle
  AtticFloor Insulation,                  !- Name
  MediumRough,                            !- Roughness
  0.2379,                                 !- Thickness {m}
  0.049,                                  !- Conductivity {W/m-K}
  265,                                    !- Density {kg/m3}
  836.800000000001,                       !- Specific Heat {J/kg-K}
  0.9,                                    !- Thermal Absorptance
  0.7,                                    !- Solar Absorptance
  0.7;                                    !- Visible Absorptance

OS:Construction,
  {b9950547-da73-43a4-85e7-4f4b7d8843ea}, !- Handle
  ASHRAE 189.1-2009 ExtRoof IEAD ClimateZone 1, !- Name
  ,                                       !- Surface Rendering Name
  {98c8120d-3e0e-415b-b305-8e40f3a3c206}, !- Layer 1
  {c6fb3e28-6fc3-4153-83c2-f0a91f2b139c}, !- Layer 2
  {fea7c565-26e8-42c8-895a-c1d8051fdcd6}; !- Layer 3

OS:StandardsInformation:Construction,
  {f9ac32e9-186d-40e2-ade1-b65b2c341cdb}, !- Handle
  {b9950547-da73-43a4-85e7-4f4b7d8843ea}, !- Construction Name
  ExteriorRoof,                           !- Intended Surface Type
  IEAD;                                   !- Standards Construction Type

OS:Material,
  {98c8120d-3e0e-415b-b305-8e40f3a3c206}, !- Handle
  Roof Membrane,                          !- Name
  VeryRough,                              !- Roughness
  0.0095,                                 !- Thickness {m}
  0.16,                                   !- Conductivity {W/m-K}
  1121.29,                                !- Density {kg/m3}
  1460,                                   !- Specific Heat {J/kg-K}
  0.9,                                    !- Thermal Absorptance
  0.7,                                    !- Solar Absorptance
  0.7;                                    !- Visible Absorptance

OS:Material,
  {c6fb3e28-6fc3-4153-83c2-f0a91f2b139c}, !- Handle
  Roof Insulation [18],                   !- Name
  MediumRough,                            !- Roughness
  0.1693,                                 !- Thickness {m}
  0.049,                                  !- Conductivity {W/m-K}
  265,                                    !- Density {kg/m3}
  836.800000000001,                       !- Specific Heat {J/kg-K}
  0.9,                                    !- Thermal Absorptance
  0.7,                                    !- Solar Absorptance
  0.7;                                    !- Visible Absorptance

OS:Material,
  {fea7c565-26e8-42c8-895a-c1d8051fdcd6}, !- Handle
  Metal Decking,                          !- Name
  MediumSmooth,                           !- Roughness
  0.0015,                                 !- Thickness {m}
  45.006,                                 !- Conductivity {W/m-K}
  7680,                                   !- Density {kg/m3}
  418.4,                                  !- Specific Heat {J/kg-K}
  0.9,                                    !- Thermal Absorptance
  0.7,                                    !- Solar Absorptance
  0.3;                                    !- Visible Absorptance

OS:Construction,
  {ceded042-016b-43d8-8394-197d5515adc9}, !- Handle
  ASHRAE 189.1-2009 ExtRoof IEAD ClimateZone 2-5, !- Name
  ,                                       !- Surface Rendering Name
  {98c8120d-3e0e-415b-b305-8e40f3a3c206}, !- Layer 1
  {d585106b-1c49-445f-b94d-113d1562af07}, !- Layer 2
  {fea7c565-26e8-42c8-895a-c1d8051fdcd6}; !- Layer 3

OS:StandardsInformation:Construction,
  {16e9f0fb-4630-44df-ab21-c4581becd341}, !- Handle
  {ceded042-016b-43d8-8394-197d5515adc9}, !- Construction Name
  ExteriorRoof,                           !- Intended Surface Type
  IEAD;                                   !- Standards Construction Type

OS:Material,
  {d585106b-1c49-445f-b94d-113d1562af07}, !- Handle
  Roof Insulation [21],                   !- Name
  MediumRough,                            !- Roughness
  0.2105,                                 !- Thickness {m}
  0.049,                                  !- Conductivity {W/m-K}
  265,                                    !- Density {kg/m3}
  836.800000000001,                       !- Specific Heat {J/kg-K}
  0.9,                                    !- Thermal Absorptance
  0.7,                                    !- Solar Absorptance
  0.7;                                    !- Visible Absorptance

OS:Construction,
  {97ca317e-5224-4d01-8fb9-24332f6a4b1d}, !- Handle
  ASHRAE 189.1-2009 ExtRoof IEAD ClimateZone 6, !- Name
  ,                                       !- Surface Rendering Name
  {98c8120d-3e0e-415b-b305-8e40f3a3c206}, !- Layer 1
  {e3b293c7-2891-4925-b97d-b205a09e6810}, !- Layer 2
  {fea7c565-26e8-42c8-895a-c1d8051fdcd6}; !- Layer 3

OS:StandardsInformation:Construction,
  {39af9253-6ccd-4326-8074-a2c44d385858}, !- Handle
  {97ca317e-5224-4d01-8fb9-24332f6a4b1d}, !- Construction Name
  ExteriorRoof,                           !- Intended Surface Type
  IEAD;                                   !- Standards Construction Type

OS:Material,
  {e3b293c7-2891-4925-b97d-b205a09e6810}, !- Handle
  Roof Insulation [24],                   !- Name
  MediumRough,                            !- Roughness
  0.260100000000001,                      !- Thickness {m}
  0.049,                                  !- Conductivity {W/m-K}
  265,                                    !- Density {kg/m3}
  836.800000000001,                       !- Specific Heat {J/kg-K}
  0.9,                                    !- Thermal Absorptance
  0.7,                                    !- Solar Absorptance
  0.7;                                    !- Visible Absorptance

OS:Construction,
  {8331e1fa-6b95-4fc4-9fdd-c98e2f9e4212}, !- Handle
  ASHRAE 189.1-2009 ExtRoof IEAD ClimateZone 7-8, !- Name
  ,                                       !- Surface Rendering Name
  {98c8120d-3e0e-415b-b305-8e40f3a3c206}, !- Layer 1
  {1040446e-1c07-456d-b2cd-c2ddb4ffb726}, !- Layer 2
  {fea7c565-26e8-42c8-895a-c1d8051fdcd6}; !- Layer 3

OS:StandardsInformation:Construction,
  {cb0df4ea-d13a-4695-a80e-049ece2602b2}, !- Handle
  {8331e1fa-6b95-4fc4-9fdd-c98e2f9e4212}, !- Construction Name
  ExteriorRoof,                           !- Intended Surface Type
  IEAD;                                   !- Standards Construction Type

OS:Material,
  {1040446e-1c07-456d-b2cd-c2ddb4ffb726}, !- Handle
  Roof Insulation [26],                   !- Name
  MediumRough,                            !- Roughness
  0.2941,                                 !- Thickness {m}
  0.049,                                  !- Conductivity {W/m-K}
  265,                                    !- Density {kg/m3}
  836.800000000001,                       !- Specific Heat {J/kg-K}
  0.9,                                    !- Thermal Absorptance
  0.7,                                    !- Solar Absorptance
  0.7;                                    !- Visible Absorptance

OS:Construction,
  {3f80d845-3445-4753-8ee2-65ac4352ad27}, !- Handle
  ASHRAE 189.1-2009 ExtRoof Metal ClimateZone 1, !- Name
  ,                                       !- Surface Rendering Name
  {17ba992e-6751-4934-badc-b949d96bf448}, !- Layer 1
  {2158b14e-3408-4544-b8e6-1c2685ddc9b1}; !- Layer 2

OS:StandardsInformation:Construction,
  {ad903b28-1503-43de-b990-59bdf37629f2}, !- Handle
  {3f80d845-3445-4753-8ee2-65ac4352ad27}, !- Construction Name
  ExteriorRoof,                           !- Intended Surface Type
  Metal;                                  !- Standards Construction Type

OS:Material,
  {17ba992e-6751-4934-badc-b949d96bf448}, !- Handle
  Metal Roofing,                          !- Name
  MediumSmooth,                           !- Roughness
  0.0015,                                 !- Thickness {m}
  45.006,                                 !- Conductivity {W/m-K}
  7680,                                   !- Density {kg/m3}
  418.4,                                  !- Specific Heat {J/kg-K}
  0.9,                                    !- Thermal Absorptance
  0.3,                                    !- Solar Absorptance
  0.3;                                    !- Visible Absorptance

OS:Material,
  {2158b14e-3408-4544-b8e6-1c2685ddc9b1}, !- Handle
  Roof Insulation [19],                   !- Name
  MediumRough,                            !- Roughness
  0.1868,                                 !- Thickness {m}
  0.049,                                  !- Conductivity {W/m-K}
  265,                                    !- Density {kg/m3}
  836.800000000001,                       !- Specific Heat {J/kg-K}
  0.9,                                    !- Thermal Absorptance
  0.7,                                    !- Solar Absorptance
  0.7;                                    !- Visible Absorptance

OS:Construction,
  {c99ff8eb-d0e0-4c06-b117-1747fabf9338}, !- Handle
  ASHRAE 189.1-2009 ExtRoof Metal ClimateZone 2-5, !- Name
  ,                                       !- Surface Rendering Name
  {17ba992e-6751-4934-badc-b949d96bf448}, !- Layer 1
  {1d3ce3d7-adf9-4576-9ac0-bf3c45c16cdd}; !- Layer 2

OS:StandardsInformation:Construction,
  {a7a300e1-b0a2-42f7-b1af-3abc2fc604aa}, !- Handle
  {c99ff8eb-d0e0-4c06-b117-1747fabf9338}, !- Construction Name
  ExteriorRoof,                           !- Intended Surface Type
  Metal;                                  !- Standards Construction Type

OS:Material,
  {1d3ce3d7-adf9-4576-9ac0-bf3c45c16cdd}, !- Handle
  Roof Insulation [22],                   !- Name
  MediumRough,                            !- Roughness
  0.2358,                                 !- Thickness {m}
  0.049,                                  !- Conductivity {W/m-K}
  265,                                    !- Density {kg/m3}
  836.800000000001,                       !- Specific Heat {J/kg-K}
  0.9,                                    !- Thermal Absorptance
  0.7,                                    !- Solar Absorptance
  0.7;                                    !- Visible Absorptance

OS:Construction,
  {a9e06ab2-2449-419e-8556-e5514126450c}, !- Handle
  ASHRAE 189.1-2009 ExtRoof Metal ClimateZone 6, !- Name
  ,                                       !- Surface Rendering Name
  {17ba992e-6751-4934-badc-b949d96bf448}, !- Layer 1
  {2d42e4ca-dcc8-40da-83d6-f290a451fe19}; !- Layer 2

OS:StandardsInformation:Construction,
  {dba6c766-5997-4ed0-8344-2e55d33a79fb}, !- Handle
  {a9e06ab2-2449-419e-8556-e5514126450c}, !- Construction Name
  ExteriorRoof,                           !- Intended Surface Type
  Metal;                                  !- Standards Construction Type

OS:Material,
  {2d42e4ca-dcc8-40da-83d6-f290a451fe19}, !- Handle
  Roof Insulation [25],                   !- Name
  MediumRough,                            !- Roughness
  0.263,                                  !- Thickness {m}
  0.049,                                  !- Conductivity {W/m-K}
  265,                                    !- Density {kg/m3}
  836.800000000001,                       !- Specific Heat {J/kg-K}
  0.9,                                    !- Thermal Absorptance
  0.7,                                    !- Solar Absorptance
  0.7;                                    !- Visible Absorptance

OS:Construction,
  {b162ea67-8b37-426d-b494-ee3694ab1702}, !- Handle
  ASHRAE 189.1-2009 ExtRoof Metal ClimateZone 7-8, !- Name
  ,                                       !- Surface Rendering Name
  {17ba992e-6751-4934-badc-b949d96bf448}, !- Layer 1
  {86897b64-10bc-49d1-947c-59f2f4be9e62}; !- Layer 2

OS:StandardsInformation:Construction,
  {dfdb4967-fe7a-4e49-9bcb-448ee5eb3460}, !- Handle
  {b162ea67-8b37-426d-b494-ee3694ab1702}, !- Construction Name
  ExteriorRoof,                           !- Intended Surface Type
  Metal;                                  !- Standards Construction Type

OS:Material,
  {86897b64-10bc-49d1-947c-59f2f4be9e62}, !- Handle
  Roof Insulation [27],                   !- Name
  MediumRough,                            !- Roughness
  0.297000000000001,                      !- Thickness {m}
  0.049,                                  !- Conductivity {W/m-K}
  265,                                    !- Density {kg/m3}
  836.800000000001,                       !- Specific Heat {J/kg-K}
  0.9,                                    !- Thermal Absorptance
  0.7,                                    !- Solar Absorptance
  0.7;                                    !- Visible Absorptance

OS:Construction,
  {92cf246a-5871-4cc7-b53c-534212dc0f3a}, !- Handle
  ASHRAE 189.1-2009 ExtWall Mass ClimateZone 1, !- Name
  ,                                       !- Surface Rendering Name
  {29eac3cf-6a67-4f83-a43e-d7b680798e90}, !- Layer 1
  {543fe83b-4020-4ee6-b172-032410943104}, !- Layer 2
  {ef0ab44b-ff34-4ad7-84ec-f0e35a8b8021}, !- Layer 3
  {b6233025-30c5-4e1c-8b80-84992ed3b032}; !- Layer 4

OS:StandardsInformation:Construction,
  {05c8370e-fcba-4ff7-bc56-4eccc042bde8}, !- Handle
  {92cf246a-5871-4cc7-b53c-534212dc0f3a}, !- Construction Name
  ExteriorWall,                           !- Intended Surface Type
  Mass;                                   !- Standards Construction Type

OS:Material,
  {29eac3cf-6a67-4f83-a43e-d7b680798e90}, !- Handle
  1IN Stucco,                             !- Name
  Smooth,                                 !- Roughness
  0.0253,                                 !- Thickness {m}
  0.691799999999999,                      !- Conductivity {W/m-K}
  1858,                                   !- Density {kg/m3}
  836.999999999999,                       !- Specific Heat {J/kg-K}
  0.9,                                    !- Thermal Absorptance
  0.92,                                   !- Solar Absorptance
  0.92;                                   !- Visible Absorptance

OS:Material,
  {543fe83b-4020-4ee6-b172-032410943104}, !- Handle
  8IN Concrete HW,                        !- Name
  MediumRough,                            !- Roughness
  0.2033,                                 !- Thickness {m}
  1.72959999999999,                       !- Conductivity {W/m-K}
  2242.99999999999,                       !- Density {kg/m3}
  836.999999999999,                       !- Specific Heat {J/kg-K}
  0.9,                                    !- Thermal Absorptance
  0.65,                                   !- Solar Absorptance
  0.65;                                   !- Visible Absorptance

OS:Material,
  {ef0ab44b-ff34-4ad7-84ec-f0e35a8b8021}, !- Handle
  Wall Insulation [31],                   !- Name
  MediumRough,                            !- Roughness
  0.0337000000000001,                     !- Thickness {m}
  0.0432,                                 !- Conductivity {W/m-K}
  91,                                     !- Density {kg/m3}
  836.999999999999,                       !- Specific Heat {J/kg-K}
  0.9,                                    !- Thermal Absorptance
  0.5,                                    !- Solar Absorptance
  0.5;                                    !- Visible Absorptance

OS:Construction,
  {e3a52dda-47d6-4119-a5fd-7769a416dc58}, !- Handle
  ASHRAE 189.1-2009 ExtWall Mass ClimateZone 2, !- Name
  ,                                       !- Surface Rendering Name
  {29eac3cf-6a67-4f83-a43e-d7b680798e90}, !- Layer 1
  {543fe83b-4020-4ee6-b172-032410943104}, !- Layer 2
  {1d62eddb-98ac-4fda-acaa-b97ee76b76f7}, !- Layer 3
  {b6233025-30c5-4e1c-8b80-84992ed3b032}; !- Layer 4

OS:StandardsInformation:Construction,
  {4e9035a9-6a02-4da1-b033-94687b06f196}, !- Handle
  {e3a52dda-47d6-4119-a5fd-7769a416dc58}, !- Construction Name
  ExteriorWall,                           !- Intended Surface Type
  Mass;                                   !- Standards Construction Type

OS:Material,
  {1d62eddb-98ac-4fda-acaa-b97ee76b76f7}, !- Handle
  Wall Insulation [35],                   !- Name
  MediumRough,                            !- Roughness
  0.0452,                                 !- Thickness {m}
  0.0432,                                 !- Conductivity {W/m-K}
  91,                                     !- Density {kg/m3}
  836.999999999999,                       !- Specific Heat {J/kg-K}
  0.9,                                    !- Thermal Absorptance
  0.5,                                    !- Solar Absorptance
  0.5;                                    !- Visible Absorptance

OS:Construction,
  {a2c2f66f-07fe-48ef-b1f8-967f64e9eefe}, !- Handle
  ASHRAE 189.1-2009 ExtWall Mass ClimateZone 3, !- Name
  ,                                       !- Surface Rendering Name
  {29eac3cf-6a67-4f83-a43e-d7b680798e90}, !- Layer 1
  {543fe83b-4020-4ee6-b172-032410943104}, !- Layer 2
  {28d66720-bccf-48e3-9607-45c8df5d2a23}, !- Layer 3
  {b6233025-30c5-4e1c-8b80-84992ed3b032}; !- Layer 4

OS:StandardsInformation:Construction,
  {09b66b68-38f7-4bda-bdfc-4c9489d5056b}, !- Handle
  {a2c2f66f-07fe-48ef-b1f8-967f64e9eefe}, !- Construction Name
  ExteriorWall,                           !- Intended Surface Type
  Mass;                                   !- Standards Construction Type

OS:Material,
  {28d66720-bccf-48e3-9607-45c8df5d2a23}, !- Handle
  Wall Insulation [36],                   !- Name
  MediumRough,                            !- Roughness
  0.0565999999999999,                     !- Thickness {m}
  0.0432,                                 !- Conductivity {W/m-K}
  91,                                     !- Density {kg/m3}
  836.999999999999,                       !- Specific Heat {J/kg-K}
  0.9,                                    !- Thermal Absorptance
  0.5,                                    !- Solar Absorptance
  0.5;                                    !- Visible Absorptance

OS:Construction,
  {5d15b4ac-4e78-446e-b241-3839f1af9e80}, !- Handle
  ASHRAE 189.1-2009 ExtWall Mass ClimateZone 4, !- Name
  ,                                       !- Surface Rendering Name
  {29eac3cf-6a67-4f83-a43e-d7b680798e90}, !- Layer 1
  {543fe83b-4020-4ee6-b172-032410943104}, !- Layer 2
  {b512c290-fda9-4b12-acb7-e5e759ecfcab}, !- Layer 3
  {b6233025-30c5-4e1c-8b80-84992ed3b032}; !- Layer 4

OS:StandardsInformation:Construction,
  {9b811192-5dee-4cae-8af5-ee63f7ff9b3c}, !- Handle
  {5d15b4ac-4e78-446e-b241-3839f1af9e80}, !- Construction Name
  ExteriorWall,                           !- Intended Surface Type
  Mass;                                   !- Standards Construction Type

OS:Material,
  {b512c290-fda9-4b12-acb7-e5e759ecfcab}, !- Handle
  Wall Insulation [37],                   !- Name
  MediumRough,                            !- Roughness
  0.0680999999999999,                     !- Thickness {m}
  0.0432,                                 !- Conductivity {W/m-K}
  91,                                     !- Density {kg/m3}
  836.999999999999,                       !- Specific Heat {J/kg-K}
  0.9,                                    !- Thermal Absorptance
  0.5,                                    !- Solar Absorptance
  0.5;                                    !- Visible Absorptance

OS:Construction,
  {5040692d-9483-413f-958f-dd35658c1562}, !- Handle
  ASHRAE 189.1-2009 ExtWall Mass ClimateZone 5, !- Name
  ,                                       !- Surface Rendering Name
  {29eac3cf-6a67-4f83-a43e-d7b680798e90}, !- Layer 1
  {543fe83b-4020-4ee6-b172-032410943104}, !- Layer 2
  {e7dd68c7-93c2-44f7-a13e-9afe6171b6db}, !- Layer 3
  {b6233025-30c5-4e1c-8b80-84992ed3b032}; !- Layer 4

OS:StandardsInformation:Construction,
  {b38b4828-5862-4af4-b31a-1cc02ebb97c2}, !- Handle
  {5040692d-9483-413f-958f-dd35658c1562}, !- Construction Name
  ExteriorWall,                           !- Intended Surface Type
  Mass;                                   !- Standards Construction Type

OS:Material,
  {e7dd68c7-93c2-44f7-a13e-9afe6171b6db}, !- Handle
  Wall Insulation [40],                   !- Name
  MediumRough,                            !- Roughness
  0.0793999999999999,                     !- Thickness {m}
  0.0432,                                 !- Conductivity {W/m-K}
  91,                                     !- Density {kg/m3}
  836.999999999999,                       !- Specific Heat {J/kg-K}
  0.9,                                    !- Thermal Absorptance
  0.5,                                    !- Solar Absorptance
  0.5;                                    !- Visible Absorptance

OS:Construction,
  {95b4354c-fb4b-48df-8387-ba4c3620eba9}, !- Handle
  ASHRAE 189.1-2009 ExtWall Mass ClimateZone 6, !- Name
  ,                                       !- Surface Rendering Name
  {29eac3cf-6a67-4f83-a43e-d7b680798e90}, !- Layer 1
  {543fe83b-4020-4ee6-b172-032410943104}, !- Layer 2
  {1c401bc5-ebf8-4254-9276-35cd71589941}, !- Layer 3
  {b6233025-30c5-4e1c-8b80-84992ed3b032}; !- Layer 4

OS:StandardsInformation:Construction,
  {ab3c7ef3-a98a-4adb-91e3-f6d477299ffd}, !- Handle
  {95b4354c-fb4b-48df-8387-ba4c3620eba9}, !- Construction Name
  ExteriorWall,                           !- Intended Surface Type
  Mass;                                   !- Standards Construction Type

OS:Material,
  {1c401bc5-ebf8-4254-9276-35cd71589941}, !- Handle
  Wall Insulation [42],                   !- Name
  MediumRough,                            !- Roughness
  0.0913999999999999,                     !- Thickness {m}
  0.0432,                                 !- Conductivity {W/m-K}
  91,                                     !- Density {kg/m3}
  836.999999999999,                       !- Specific Heat {J/kg-K}
  0.9,                                    !- Thermal Absorptance
  0.5,                                    !- Solar Absorptance
  0.5;                                    !- Visible Absorptance

OS:Construction,
  {8ae2f0fc-b1bb-49dd-9423-6a8d6fe24ff9}, !- Handle
  ASHRAE 189.1-2009 ExtWall Mass ClimateZone 7-8, !- Name
  ,                                       !- Surface Rendering Name
  {29eac3cf-6a67-4f83-a43e-d7b680798e90}, !- Layer 1
  {543fe83b-4020-4ee6-b172-032410943104}, !- Layer 2
  {dbe65859-fb2b-4850-8e42-f7ec6b9465ef}, !- Layer 3
  {b6233025-30c5-4e1c-8b80-84992ed3b032}; !- Layer 4

OS:StandardsInformation:Construction,
  {163fdb24-f3dc-4823-b458-661c703e6d84}, !- Handle
  {8ae2f0fc-b1bb-49dd-9423-6a8d6fe24ff9}, !- Construction Name
  ExteriorWall,                           !- Intended Surface Type
  Mass;                                   !- Standards Construction Type

OS:Material,
  {dbe65859-fb2b-4850-8e42-f7ec6b9465ef}, !- Handle
  Wall Insulation [44],                   !- Name
  MediumRough,                            !- Roughness
  0.1104,                                 !- Thickness {m}
  0.0432,                                 !- Conductivity {W/m-K}
  91,                                     !- Density {kg/m3}
  836.999999999999,                       !- Specific Heat {J/kg-K}
  0.9,                                    !- Thermal Absorptance
  0.5,                                    !- Solar Absorptance
  0.5;                                    !- Visible Absorptance

OS:Construction,
  {ff71a18e-f904-48ff-94d3-978e25151a60}, !- Handle
  ASHRAE 189.1-2009 ExtWall Mass ClimateZone alt-res 1, !- Name
  ,                                       !- Surface Rendering Name
  {29eac3cf-6a67-4f83-a43e-d7b680798e90}, !- Layer 1
  {543fe83b-4020-4ee6-b172-032410943104}, !- Layer 2
  {1d62eddb-98ac-4fda-acaa-b97ee76b76f7}, !- Layer 3
  {b6233025-30c5-4e1c-8b80-84992ed3b032}; !- Layer 4

OS:StandardsInformation:Construction,
  {44319f7a-a18e-4852-b2db-c455aefd0d49}, !- Handle
  {ff71a18e-f904-48ff-94d3-978e25151a60}, !- Construction Name
  ExteriorWall,                           !- Intended Surface Type
  Mass;                                   !- Standards Construction Type

OS:Construction,
  {e42a54a6-c589-4c78-871e-07d50ca69a05}, !- Handle
  ASHRAE 189.1-2009 ExtWall Mass ClimateZone alt-res 2, !- Name
  ,                                       !- Surface Rendering Name
  {29eac3cf-6a67-4f83-a43e-d7b680798e90}, !- Layer 1
  {543fe83b-4020-4ee6-b172-032410943104}, !- Layer 2
  {28d66720-bccf-48e3-9607-45c8df5d2a23}, !- Layer 3
  {b6233025-30c5-4e1c-8b80-84992ed3b032}; !- Layer 4

OS:StandardsInformation:Construction,
  {b039e1cf-24db-42f8-bcac-af4a440f0ac8}, !- Handle
  {e42a54a6-c589-4c78-871e-07d50ca69a05}, !- Construction Name
  ExteriorWall,                           !- Intended Surface Type
  Mass;                                   !- Standards Construction Type

OS:Construction,
  {32efc46d-6eca-4d26-91b3-b8a07d64d655}, !- Handle
  ASHRAE 189.1-2009 ExtWall Mass ClimateZone alt-res 3, !- Name
  ,                                       !- Surface Rendering Name
  {29eac3cf-6a67-4f83-a43e-d7b680798e90}, !- Layer 1
  {543fe83b-4020-4ee6-b172-032410943104}, !- Layer 2
  {b512c290-fda9-4b12-acb7-e5e759ecfcab}, !- Layer 3
  {b6233025-30c5-4e1c-8b80-84992ed3b032}; !- Layer 4

OS:StandardsInformation:Construction,
  {e7c5738c-4314-4872-b18b-54b021d44c58}, !- Handle
  {32efc46d-6eca-4d26-91b3-b8a07d64d655}, !- Construction Name
  ExteriorWall,                           !- Intended Surface Type
  Mass;                                   !- Standards Construction Type

OS:Construction,
  {f726f8b1-2b60-4bcd-b9e2-16b9d0eed7e5}, !- Handle
  ASHRAE 189.1-2009 ExtWall Mass ClimateZone alt-res 4, !- Name
  ,                                       !- Surface Rendering Name
  {29eac3cf-6a67-4f83-a43e-d7b680798e90}, !- Layer 1
  {543fe83b-4020-4ee6-b172-032410943104}, !- Layer 2
  {e7dd68c7-93c2-44f7-a13e-9afe6171b6db}, !- Layer 3
  {b6233025-30c5-4e1c-8b80-84992ed3b032}; !- Layer 4

OS:StandardsInformation:Construction,
  {855ff795-373b-45ce-b86f-bdbe1fc5fae2}, !- Handle
  {f726f8b1-2b60-4bcd-b9e2-16b9d0eed7e5}, !- Construction Name
  ExteriorWall,                           !- Intended Surface Type
  Mass;                                   !- Standards Construction Type

OS:Construction,
  {552edc15-6336-4283-ae23-8c557902c8db}, !- Handle
  ASHRAE 189.1-2009 ExtWall Mass ClimateZone alt-res 5, !- Name
  ,                                       !- Surface Rendering Name
  {29eac3cf-6a67-4f83-a43e-d7b680798e90}, !- Layer 1
  {543fe83b-4020-4ee6-b172-032410943104}, !- Layer 2
  {1c401bc5-ebf8-4254-9276-35cd71589941}, !- Layer 3
  {b6233025-30c5-4e1c-8b80-84992ed3b032}; !- Layer 4

OS:StandardsInformation:Construction,
  {1b6292c2-28bf-4d7a-b657-e323894e416e}, !- Handle
  {552edc15-6336-4283-ae23-8c557902c8db}, !- Construction Name
  ExteriorWall,                           !- Intended Surface Type
  Mass;                                   !- Standards Construction Type

OS:Construction,
  {9f89e530-0b6a-4077-8ca1-141c4d1e183a}, !- Handle
  ASHRAE 189.1-2009 ExtWall Mass ClimateZone alt-res 6, !- Name
  ,                                       !- Surface Rendering Name
  {29eac3cf-6a67-4f83-a43e-d7b680798e90}, !- Layer 1
  {543fe83b-4020-4ee6-b172-032410943104}, !- Layer 2
  {dbe65859-fb2b-4850-8e42-f7ec6b9465ef}, !- Layer 3
  {b6233025-30c5-4e1c-8b80-84992ed3b032}; !- Layer 4

OS:StandardsInformation:Construction,
  {383161a3-ba2a-4e83-92df-0f636819f314}, !- Handle
  {9f89e530-0b6a-4077-8ca1-141c4d1e183a}, !- Construction Name
  ExteriorWall,                           !- Intended Surface Type
  Mass;                                   !- Standards Construction Type

OS:Construction,
  {c0a82ee9-eb2e-4f0c-9f1f-4685d04ebc53}, !- Handle
  ASHRAE 189.1-2009 ExtWall Mass ClimateZone alt-res 7, !- Name
  ,                                       !- Surface Rendering Name
  {29eac3cf-6a67-4f83-a43e-d7b680798e90}, !- Layer 1
  {543fe83b-4020-4ee6-b172-032410943104}, !- Layer 2
  {dbe65859-fb2b-4850-8e42-f7ec6b9465ef}, !- Layer 3
  {b6233025-30c5-4e1c-8b80-84992ed3b032}; !- Layer 4

OS:StandardsInformation:Construction,
  {f531c6ce-dcfe-44e3-8ec0-c177a52a4a9f}, !- Handle
  {c0a82ee9-eb2e-4f0c-9f1f-4685d04ebc53}, !- Construction Name
  ExteriorWall,                           !- Intended Surface Type
  Mass;                                   !- Standards Construction Type

OS:Construction,
  {950fef9e-b935-401e-9b71-0a1efdca59d4}, !- Handle
  ASHRAE 189.1-2009 ExtWall Mass ClimateZone alt-res 8, !- Name