
OS:Version,
  {1824c7cf-7a8f-4743-805f-613726f4fb4c}, !- Handle
  1.3.3;                                  !- Version Identifier

OS:Construction,
  {d2916e9f-ca16-4adf-aaa6-bd6714741c05}, !- Handle
  ASHRAE 189.1-2009 AtticFloor ClimateZone 1-8, !- Name
  ,                                       !- Surface Rendering Name
  {7e429d56-acfe-43aa-b576-e4898597e9d7}, !- Layer 1
  {8a3fd4e3-322b-4f9b-931a-eea0dedb840d}, !- Layer 2
  {7e429d56-acfe-43aa-b576-e4898597e9d7}; !- Layer 3

OS:StandardsInformation:Construction,
  {247356a5-59cf-4892-b79f-abad3de20a17}, !- Handle
  {d2916e9f-ca16-4adf-aaa6-bd6714741c05}, !- Construction Name
  AtticFloor,                             !- Intended Surface Type
  WoodFramed;                             !- Standards Construction Type

OS:Material,
  {7e429d56-acfe-43aa-b576-e4898597e9d7}, !- Handle
  1/2IN Gypsum,                           !- Name
  Smooth,                                 !- Roughness
  0.0127,                                 !- Thickness {m}
  0.16,                                   !- Conductivity {W/m-K}
  784.9,                                  !- Density {kg/m3}
  830.000000000001,                       !- Specific Heat {J/kg-K}
  0.9,                                    !- Thermal Absorptance
  0.92,                                   !- Solar Absorptance
  0.92;                                   !- Visible Absorptance

OS:Material,
  {8a3fd4e3-322b-4f9b-931a-eea0dedb840d}, !- Handle
  AtticFloor Insulation,                  !- Name
  MediumRough,                            !- Roughness
  0.2379,                                 !- Thickness {m}
  0.049,                                  !- Conductivity {W/m-K}
  265,                                    !- Density {kg/m3}
  836.800000000001,                       !- Specific Heat {J/kg-K}
  0.9,                                    !- Thermal Absorptance
  0.7,                                    !- Solar Absorptance
  0.7;                                    !- Visible Absorptance

OS:Construction,
  {6fa8ddb4-e71c-4a66-ad09-689332cfb28f}, !- Handle
  ASHRAE 189.1-2009 ExtRoof IEAD ClimateZone 1, !- Name
  ,                                       !- Surface Rendering Name
  {50af9501-88e6-4af1-bd73-174d71ceb026}, !- Layer 1
  {53c34999-dbd3-4040-93cd-cde0d8120f25}, !- Layer 2
  {964d518a-f263-4f60-8c74-272ffb132c0d}; !- Layer 3

OS:StandardsInformation:Construction,
  {ecf176a2-f4d7-4c8d-9cb7-4103d500ed8b}, !- Handle
  {6fa8ddb4-e71c-4a66-ad09-689332cfb28f}, !- Construction Name
  ExteriorRoof,                           !- Intended Surface Type
  IEAD;                                   !- Standards Construction Type

OS:Material,
  {50af9501-88e6-4af1-bd73-174d71ceb026}, !- Handle
  Roof Membrane,                          !- Name
  VeryRough,                              !- Roughness
  0.0095,                                 !- Thickness {m}
  0.16,                                   !- Conductivity {W/m-K}
  1121.29,                                !- Density {kg/m3}
  1460,                                   !- Specific Heat {J/kg-K}
  0.9,                                    !- Thermal Absorptance
  0.7,                                    !- Solar Absorptance
  0.7;                                    !- Visible Absorptance

OS:Material,
  {53c34999-dbd3-4040-93cd-cde0d8120f25}, !- Handle
  Roof Insulation [18],                   !- Name
  MediumRough,                            !- Roughness
  0.1693,                                 !- Thickness {m}
  0.049,                                  !- Conductivity {W/m-K}
  265,                                    !- Density {kg/m3}
  836.800000000001,                       !- Specific Heat {J/kg-K}
  0.9,                                    !- Thermal Absorptance
  0.7,                                    !- Solar Absorptance
  0.7;                                    !- Visible Absorptance

OS:Material,
  {964d518a-f263-4f60-8c74-272ffb132c0d}, !- Handle
  Metal Decking,                          !- Name
  MediumSmooth,                           !- Roughness
  0.0015,                                 !- Thickness {m}
  45.006,                                 !- Conductivity {W/m-K}
  7680,                                   !- Density {kg/m3}
  418.4,                                  !- Specific Heat {J/kg-K}
  0.9,                                    !- Thermal Absorptance
  0.7,                                    !- Solar Absorptance
  0.3;                                    !- Visible Absorptance

OS:Construction,
  {0d3aa727-6b72-476a-a223-98775bff8fc8}, !- Handle
  ASHRAE 189.1-2009 ExtRoof IEAD ClimateZone 2-5, !- Name
  ,                                       !- Surface Rendering Name
  {50af9501-88e6-4af1-bd73-174d71ceb026}, !- Layer 1
  {5b03ca1e-9589-42c9-8876-f5840b0cd4ff}, !- Layer 2
  {964d518a-f263-4f60-8c74-272ffb132c0d}; !- Layer 3

OS:StandardsInformation:Construction,
  {70877022-5000-4cd0-bd4f-d1ce22174fd9}, !- Handle
  {0d3aa727-6b72-476a-a223-98775bff8fc8}, !- Construction Name
  ExteriorRoof,                           !- Intended Surface Type
  IEAD;                                   !- Standards Construction Type

OS:Material,
  {5b03ca1e-9589-42c9-8876-f5840b0cd4ff}, !- Handle
  Roof Insulation [21],                   !- Name
  MediumRough,                            !- Roughness
  0.2105,                                 !- Thickness {m}
  0.049,                                  !- Conductivity {W/m-K}
  265,                                    !- Density {kg/m3}
  836.800000000001,                       !- Specific Heat {J/kg-K}
  0.9,                                    !- Thermal Absorptance
  0.7,                                    !- Solar Absorptance
  0.7;                                    !- Visible Absorptance

OS:Construction,
  {f4503954-5d23-4b37-b1ae-67bc8ed43950}, !- Handle
  ASHRAE 189.1-2009 ExtRoof IEAD ClimateZone 6, !- Name
  ,                                       !- Surface Rendering Name
  {50af9501-88e6-4af1-bd73-174d71ceb026}, !- Layer 1
  {28a4e3f7-7599-4ab0-9430-5772baf91fe9}, !- Layer 2
  {964d518a-f263-4f60-8c74-272ffb132c0d}; !- Layer 3

OS:StandardsInformation:Construction,
  {4d789862-689a-43e7-9ee3-90a9ca0cb35e}, !- Handle
  {f4503954-5d23-4b37-b1ae-67bc8ed43950}, !- Construction Name
  ExteriorRoof,                           !- Intended Surface Type
  IEAD;                                   !- Standards Construction Type

OS:Material,
  {28a4e3f7-7599-4ab0-9430-5772baf91fe9}, !- Handle
  Roof Insulation [24],                   !- Name
  MediumRough,                            !- Roughness
  0.260100000000001,                      !- Thickness {m}
  0.049,                                  !- Conductivity {W/m-K}
  265,                                    !- Density {kg/m3}
  836.800000000001,                       !- Specific Heat {J/kg-K}
  0.9,                                    !- Thermal Absorptance
  0.7,                                    !- Solar Absorptance
  0.7;                                    !- Visible Absorptance

OS:Construction,
  {8e5edda9-2e20-415d-8e62-6ea5f10f4e30}, !- Handle
  ASHRAE 189.1-2009 ExtRoof IEAD ClimateZone 7-8, !- Name
  ,                                       !- Surface Rendering Name
  {50af9501-88e6-4af1-bd73-174d71ceb026}, !- Layer 1
  {949482dd-5b4f-44da-918a-f0d8b6849d67}, !- Layer 2
  {964d518a-f263-4f60-8c74-272ffb132c0d}; !- Layer 3

OS:StandardsInformation:Construction,
  {c54f9016-81dd-429c-93e1-b0e0ecb8f15d}, !- Handle
  {8e5edda9-2e20-415d-8e62-6ea5f10f4e30}, !- Construction Name
  ExteriorRoof,                           !- Intended Surface Type
  IEAD;                                   !- Standards Construction Type

OS:Material,
  {949482dd-5b4f-44da-918a-f0d8b6849d67}, !- Handle
  Roof Insulation [26],                   !- Name
  MediumRough,                            !- Roughness
  0.2941,                                 !- Thickness {m}
  0.049,                                  !- Conductivity {W/m-K}
  265,                                    !- Density {kg/m3}
  836.800000000001,                       !- Specific Heat {J/kg-K}
  0.9,                                    !- Thermal Absorptance
  0.7,                                    !- Solar Absorptance
  0.7;                                    !- Visible Absorptance

OS:Construction,
  {5e22127c-c95b-488d-906e-a11e94e34300}, !- Handle
  ASHRAE 189.1-2009 ExtRoof Metal ClimateZone 1, !- Name
  ,                                       !- Surface Rendering Name
  {67dab389-093e-4d18-ac5f-090b3da0db50}, !- Layer 1
  {3e382435-c450-4c93-ab5c-ed5a587bfbb2}; !- Layer 2

OS:StandardsInformation:Construction,
  {6a981986-824e-4fd2-b4e6-ea4b4da88c5e}, !- Handle
  {5e22127c-c95b-488d-906e-a11e94e34300}, !- Construction Name
  ExteriorRoof,                           !- Intended Surface Type
  Metal;                                  !- Standards Construction Type

OS:Material,
  {67dab389-093e-4d18-ac5f-090b3da0db50}, !- Handle
  Metal Roofing,                          !- Name
  MediumSmooth,                           !- Roughness
  0.0015,                                 !- Thickness {m}
  45.006,                                 !- Conductivity {W/m-K}
  7680,                                   !- Density {kg/m3}
  418.4,                                  !- Specific Heat {J/kg-K}
  0.9,                                    !- Thermal Absorptance
  0.3,                                    !- Solar Absorptance
  0.3;                                    !- Visible Absorptance

OS:Material,
  {3e382435-c450-4c93-ab5c-ed5a587bfbb2}, !- Handle
  Roof Insulation [19],                   !- Name
  MediumRough,                            !- Roughness
  0.1868,                                 !- Thickness {m}
  0.049,                                  !- Conductivity {W/m-K}
  265,                                    !- Density {kg/m3}
  836.800000000001,                       !- Specific Heat {J/kg-K}
  0.9,                                    !- Thermal Absorptance
  0.7,                                    !- Solar Absorptance
  0.7;                                    !- Visible Absorptance

OS:Construction,
  {4da7c301-e8f1-4b18-873b-bfd8104049bb}, !- Handle
  ASHRAE 189.1-2009 ExtRoof Metal ClimateZone 2-5, !- Name
  ,                                       !- Surface Rendering Name
  {67dab389-093e-4d18-ac5f-090b3da0db50}, !- Layer 1
  {0d3c24d9-7fed-44a4-9526-05a6a77bbe3b}; !- Layer 2

OS:StandardsInformation:Construction,
  {356eab80-668f-4354-b8d0-caaa556d4755}, !- Handle
  {4da7c301-e8f1-4b18-873b-bfd8104049bb}, !- Construction Name
  ExteriorRoof,                           !- Intended Surface Type
  Metal;                                  !- Standards Construction Type

OS:Material,
  {0d3c24d9-7fed-44a4-9526-05a6a77bbe3b}, !- Handle
  Roof Insulation [22],                   !- Name
  MediumRough,                            !- Roughness
  0.2358,                                 !- Thickness {m}
  0.049,                                  !- Conductivity {W/m-K}
  265,                                    !- Density {kg/m3}
  836.800000000001,                       !- Specific Heat {J/kg-K}
  0.9,                                    !- Thermal Absorptance
  0.7,                                    !- Solar Absorptance
  0.7;                                    !- Visible Absorptance

OS:Construction,
  {0d1fa97f-8bcf-4dca-929e-1c2171e055b6}, !- Handle
  ASHRAE 189.1-2009 ExtRoof Metal ClimateZone 6, !- Name
  ,                                       !- Surface Rendering Name
  {67dab389-093e-4d18-ac5f-090b3da0db50}, !- Layer 1
  {d598c472-8384-49bf-a2a8-e9f2b150c39d}; !- Layer 2

OS:StandardsInformation:Construction,
  {ce463bcf-1d70-48ed-8444-7504865492ad}, !- Handle
  {0d1fa97f-8bcf-4dca-929e-1c2171e055b6}, !- Construction Name
  ExteriorRoof,                           !- Intended Surface Type
  Metal;                                  !- Standards Construction Type

OS:Material,
  {d598c472-8384-49bf-a2a8-e9f2b150c39d}, !- Handle
  Roof Insulation [25],                   !- Name
  MediumRough,                            !- Roughness
  0.263,                                  !- Thickness {m}
  0.049,                                  !- Conductivity {W/m-K}
  265,                                    !- Density {kg/m3}
  836.800000000001,                       !- Specific Heat {J/kg-K}
  0.9,                                    !- Thermal Absorptance
  0.7,                                    !- Solar Absorptance
  0.7;                                    !- Visible Absorptance

OS:Construction,
  {811b9537-2b33-43ca-bc5b-179e71c163b9}, !- Handle
  ASHRAE 189.1-2009 ExtRoof Metal ClimateZone 7-8, !- Name
  ,                                       !- Surface Rendering Name
  {67dab389-093e-4d18-ac5f-090b3da0db50}, !- Layer 1
  {4d897ec7-5cc5-431e-877b-ad731a114973}; !- Layer 2

OS:StandardsInformation:Construction,
  {a3366257-0ada-4a8e-add1-0d5b8fd0b085}, !- Handle
  {811b9537-2b33-43ca-bc5b-179e71c163b9}, !- Construction Name
  ExteriorRoof,                           !- Intended Surface Type
  Metal;                                  !- Standards Construction Type

OS:Material,
  {4d897ec7-5cc5-431e-877b-ad731a114973}, !- Handle
  Roof Insulation [27],                   !- Name
  MediumRough,                            !- Roughness
  0.297000000000001,                      !- Thickness {m}
  0.049,                                  !- Conductivity {W/m-K}
  265,                                    !- Density {kg/m3}
  836.800000000001,                       !- Specific Heat {J/kg-K}
  0.9,                                    !- Thermal Absorptance
  0.7,                                    !- Solar Absorptance
  0.7;                                    !- Visible Absorptance

OS:Construction,
  {97265376-5e9c-4d2e-a021-5f95a66ddd0f}, !- Handle
  ASHRAE 189.1-2009 ExtWall Mass ClimateZone 1, !- Name
  ,                                       !- Surface Rendering Name
  {a1c0e739-1423-4cf2-9895-9650eb177dd5}, !- Layer 1
  {5cc69598-e7cb-425d-aee2-41f22415d896}, !- Layer 2
  {200ad712-a27c-4423-b34f-f277a379cad9}, !- Layer 3
  {7e429d56-acfe-43aa-b576-e4898597e9d7}; !- Layer 4

OS:StandardsInformation:Construction,
  {c227eed0-12c5-42ef-86a6-4fcad5579e74}, !- Handle
  {97265376-5e9c-4d2e-a021-5f95a66ddd0f}, !- Construction Name
  ExteriorWall,                           !- Intended Surface Type
  Mass;                                   !- Standards Construction Type

OS:Material,
  {a1c0e739-1423-4cf2-9895-9650eb177dd5}, !- Handle
  1IN Stucco,                             !- Name
  Smooth,                                 !- Roughness
  0.0253,                                 !- Thickness {m}
  0.691799999999999,                      !- Conductivity {W/m-K}
  1858,                                   !- Density {kg/m3}
  836.999999999999,                       !- Specific Heat {J/kg-K}
  0.9,                                    !- Thermal Absorptance
  0.92,                                   !- Solar Absorptance
  0.92;                                   !- Visible Absorptance

OS:Material,
  {5cc69598-e7cb-425d-aee2-41f22415d896}, !- Handle
  8IN Concrete HW,                        !- Name
  MediumRough,                            !- Roughness
  0.2033,                                 !- Thickness {m}
  1.72959999999999,                       !- Conductivity {W/m-K}
  2242.99999999999,                       !- Density {kg/m3}
  836.999999999999,                       !- Specific Heat {J/kg-K}
  0.9,                                    !- Thermal Absorptance
  0.65,                                   !- Solar Absorptance
  0.65;                                   !- Visible Absorptance

OS:Material,
  {200ad712-a27c-4423-b34f-f277a379cad9}, !- Handle
  Wall Insulation [31],                   !- Name
  MediumRough,                            !- Roughness
  0.0337000000000001,                     !- Thickness {m}
  0.0432,                                 !- Conductivity {W/m-K}
  91,                                     !- Density {kg/m3}
  836.999999999999,                       !- Specific Heat {J/kg-K}
  0.9,                                    !- Thermal Absorptance
  0.5,                                    !- Solar Absorptance
  0.5;                                    !- Visible Absorptance

OS:Construction,
  {06effb84-89f3-4a40-8670-3ebe79df918a}, !- Handle
  ASHRAE 189.1-2009 ExtWall Mass ClimateZone 2, !- Name
  ,                                       !- Surface Rendering Name
  {a1c0e739-1423-4cf2-9895-9650eb177dd5}, !- Layer 1
  {5cc69598-e7cb-425d-aee2-41f22415d896}, !- Layer 2
  {77d071c0-d838-4391-a70b-d971baa4311c}, !- Layer 3
  {7e429d56-acfe-43aa-b576-e4898597e9d7}; !- Layer 4

OS:StandardsInformation:Construction,
  {ac66bc1b-d394-4752-9f90-935f30f1411b}, !- Handle
  {06effb84-89f3-4a40-8670-3ebe79df918a}, !- Construction Name
  ExteriorWall,                           !- Intended Surface Type
  Mass;                                   !- Standards Construction Type

OS:Material,
  {77d071c0-d838-4391-a70b-d971baa4311c}, !- Handle
  Wall Insulation [35],                   !- Name
  MediumRough,                            !- Roughness
  0.0452,                                 !- Thickness {m}
  0.0432,                                 !- Conductivity {W/m-K}
  91,                                     !- Density {kg/m3}
  836.999999999999,                       !- Specific Heat {J/kg-K}
  0.9,                                    !- Thermal Absorptance
  0.5,                                    !- Solar Absorptance
  0.5;                                    !- Visible Absorptance

OS:Construction,
  {410f59ae-797b-4b42-abdb-852a57a4f028}, !- Handle
  ASHRAE 189.1-2009 ExtWall Mass ClimateZone 3, !- Name
  ,                                       !- Surface Rendering Name
  {a1c0e739-1423-4cf2-9895-9650eb177dd5}, !- Layer 1
  {5cc69598-e7cb-425d-aee2-41f22415d896}, !- Layer 2
  {c5a53da8-1e4f-48cf-83a4-7829e20ccc99}, !- Layer 3
  {7e429d56-acfe-43aa-b576-e4898597e9d7}; !- Layer 4

OS:StandardsInformation:Construction,
  {c80c70f0-9977-473b-b5f8-a04861e12f14}, !- Handle
  {410f59ae-797b-4b42-abdb-852a57a4f028}, !- Construction Name
  ExteriorWall,                           !- Intended Surface Type
  Mass;                                   !- Standards Construction Type

OS:Material,
  {c5a53da8-1e4f-48cf-83a4-7829e20ccc99}, !- Handle
  Wall Insulation [36],                   !- Name
  MediumRough,                            !- Roughness
  0.0565999999999999,                     !- Thickness {m}
  0.0432,                                 !- Conductivity {W/m-K}
  91,                                     !- Density {kg/m3}
  836.999999999999,                       !- Specific Heat {J/kg-K}
  0.9,                                    !- Thermal Absorptance
  0.5,                                    !- Solar Absorptance
  0.5;                                    !- Visible Absorptance

OS:Construction,
  {c0c03ad8-57a4-4b00-bce4-fce556ac402e}, !- Handle
  ASHRAE 189.1-2009 ExtWall Mass ClimateZone 4, !- Name
  ,                                       !- Surface Rendering Name
  {a1c0e739-1423-4cf2-9895-9650eb177dd5}, !- Layer 1
  {5cc69598-e7cb-425d-aee2-41f22415d896}, !- Layer 2
  {fea07eea-e143-450d-a769-ad54dcffdd21}, !- Layer 3
  {7e429d56-acfe-43aa-b576-e4898597e9d7}; !- Layer 4

OS:StandardsInformation:Construction,
  {0946aa6c-a617-48c0-8953-afc4c5d77b8a}, !- Handle
  {c0c03ad8-57a4-4b00-bce4-fce556ac402e}, !- Construction Name
  ExteriorWall,                           !- Intended Surface Type
  Mass;                                   !- Standards Construction Type

OS:Material,
  {fea07eea-e143-450d-a769-ad54dcffdd21}, !- Handle
  Wall Insulation [37],                   !- Name
  MediumRough,                            !- Roughness
  0.0680999999999999,                     !- Thickness {m}
  0.0432,                                 !- Conductivity {W/m-K}
  91,                                     !- Density {kg/m3}
  836.999999999999,                       !- Specific Heat {J/kg-K}
  0.9,                                    !- Thermal Absorptance
  0.5,                                    !- Solar Absorptance
  0.5;                                    !- Visible Absorptance

OS:Construction,
  {7ee39f5a-40db-4416-93f9-afca97c3c140}, !- Handle
  ASHRAE 189.1-2009 ExtWall Mass ClimateZone 5, !- Name
  ,                                       !- Surface Rendering Name
  {a1c0e739-1423-4cf2-9895-9650eb177dd5}, !- Layer 1
  {5cc69598-e7cb-425d-aee2-41f22415d896}, !- Layer 2
  {76e36bf6-888d-410e-b035-273340a9467c}, !- Layer 3
  {7e429d56-acfe-43aa-b576-e4898597e9d7}; !- Layer 4

OS:StandardsInformation:Construction,
  {843b8e37-c054-4aaf-a801-03be49070df2}, !- Handle
  {7ee39f5a-40db-4416-93f9-afca97c3c140}, !- Construction Name
  ExteriorWall,                           !- Intended Surface Type
  Mass;                                   !- Standards Construction Type

OS:Material,
  {76e36bf6-888d-410e-b035-273340a9467c}, !- Handle
  Wall Insulation [40],                   !- Name
  MediumRough,                            !- Roughness
  0.0793999999999999,                     !- Thickness {m}
  0.0432,                                 !- Conductivity {W/m-K}
  91,                                     !- Density {kg/m3}
  836.999999999999,                       !- Specific Heat {J/kg-K}
  0.9,                                    !- Thermal Absorptance
  0.5,                                    !- Solar Absorptance
  0.5;                                    !- Visible Absorptance

OS:Construction,
  {a38887de-8617-4486-81ae-8859b5ded654}, !- Handle
  ASHRAE 189.1-2009 ExtWall Mass ClimateZone 6, !- Name
  ,                                       !- Surface Rendering Name
  {a1c0e739-1423-4cf2-9895-9650eb177dd5}, !- Layer 1
  {5cc69598-e7cb-425d-aee2-41f22415d896}, !- Layer 2
  {a89c5fd4-b0f2-4ccb-b4f3-03e40fdabb7f}, !- Layer 3
  {7e429d56-acfe-43aa-b576-e4898597e9d7}; !- Layer 4

OS:StandardsInformation:Construction,
  {6d568a26-527b-4b1f-a580-fac5f1f3a03c}, !- Handle
  {a38887de-8617-4486-81ae-8859b5ded654}, !- Construction Name
  ExteriorWall,                           !- Intended Surface Type
  Mass;                                   !- Standards Construction Type

OS:Material,
  {a89c5fd4-b0f2-4ccb-b4f3-03e40fdabb7f}, !- Handle
  Wall Insulation [42],                   !- Name
  MediumRough,                            !- Roughness
  0.0913999999999999,                     !- Thickness {m}
  0.0432,                                 !- Conductivity {W/m-K}
  91,                                     !- Density {kg/m3}
  836.999999999999,                       !- Specific Heat {J/kg-K}
  0.9,                                    !- Thermal Absorptance
  0.5,                                    !- Solar Absorptance
  0.5;                                    !- Visible Absorptance

OS:Construction,
  {f2c2472d-e264-4377-8913-c45555456ab7}, !- Handle
  ASHRAE 189.1-2009 ExtWall Mass ClimateZone 7-8, !- Name
  ,                                       !- Surface Rendering Name
  {a1c0e739-1423-4cf2-9895-9650eb177dd5}, !- Layer 1
  {5cc69598-e7cb-425d-aee2-41f22415d896}, !- Layer 2
  {62b2e199-16f5-4cda-9020-808de2b7140b}, !- Layer 3
  {7e429d56-acfe-43aa-b576-e4898597e9d7}; !- Layer 4

OS:StandardsInformation:Construction,
  {ec1aba13-c093-42d8-aff3-47fbae99e170}, !- Handle
  {f2c2472d-e264-4377-8913-c45555456ab7}, !- Construction Name
  ExteriorWall,                           !- Intended Surface Type
  Mass;                                   !- Standards Construction Type

OS:Material,
  {62b2e199-16f5-4cda-9020-808de2b7140b}, !- Handle
  Wall Insulation [44],                   !- Name
  MediumRough,                            !- Roughness
  0.1104,                                 !- Thickness {m}
  0.0432,                                 !- Conductivity {W/m-K}
  91,                                     !- Density {kg/m3}
  836.999999999999,                       !- Specific Heat {J/kg-K}
  0.9,                                    !- Thermal Absorptance
  0.5,                                    !- Solar Absorptance
  0.5;                                    !- Visible Absorptance

OS:Construction,
  {07a3bea4-03cb-4ded-9228-f3bb953881f5}, !- Handle
  ASHRAE 189.1-2009 ExtWall Mass ClimateZone alt-res 1, !- Name
  ,                                       !- Surface Rendering Name
  {a1c0e739-1423-4cf2-9895-9650eb177dd5}, !- Layer 1
  {5cc69598-e7cb-425d-aee2-41f22415d896}, !- Layer 2
  {77d071c0-d838-4391-a70b-d971baa4311c}, !- Layer 3
  {7e429d56-acfe-43aa-b576-e4898597e9d7}; !- Layer 4

OS:StandardsInformation:Construction,
  {513bef20-0982-4372-9ad5-b06f1dd7f2a0}, !- Handle
  {07a3bea4-03cb-4ded-9228-f3bb953881f5}, !- Construction Name
  ExteriorWall,                           !- Intended Surface Type
  Mass;                                   !- Standards Construction Type

OS:Construction,
  {1da71e99-97e6-4927-bf79-0cec40e37d54}, !- Handle
  ASHRAE 189.1-2009 ExtWall Mass ClimateZone alt-res 2, !- Name
  ,                                       !- Surface Rendering Name
  {a1c0e739-1423-4cf2-9895-9650eb177dd5}, !- Layer 1
  {5cc69598-e7cb-425d-aee2-41f22415d896}, !- Layer 2
  {c5a53da8-1e4f-48cf-83a4-7829e20ccc99}, !- Layer 3
  {7e429d56-acfe-43aa-b576-e4898597e9d7}; !- Layer 4

OS:StandardsInformation:Construction,
  {b3c24091-4b69-4d7d-8440-20ea3517cc3b}, !- Handle
  {1da71e99-97e6-4927-bf79-0cec40e37d54}, !- Construction Name
  ExteriorWall,                           !- Intended Surface Type
  Mass;                                   !- Standards Construction Type

OS:Construction,
  {b61b9d62-6044-4835-9bf9-968e4e442355}, !- Handle
  ASHRAE 189.1-2009 ExtWall Mass ClimateZone alt-res 3, !- Name
  ,                                       !- Surface Rendering Name
  {a1c0e739-1423-4cf2-9895-9650eb177dd5}, !- Layer 1
  {5cc69598-e7cb-425d-aee2-41f22415d896}, !- Layer 2
  {fea07eea-e143-450d-a769-ad54dcffdd21}, !- Layer 3
  {7e429d56-acfe-43aa-b576-e4898597e9d7}; !- Layer 4

OS:StandardsInformation:Construction,
  {9de25d30-c696-499c-bf4c-2b4ec23ccce5}, !- Handle
  {b61b9d62-6044-4835-9bf9-968e4e442355}, !- Construction Name
  ExteriorWall,                           !- Intended Surface Type
  Mass;                                   !- Standards Construction Type

OS:Construction,
  {605b9faf-e928-418a-889d-c0481fa0dbcf}, !- Handle
  ASHRAE 189.1-2009 ExtWall Mass ClimateZone alt-res 4, !- Name
  ,                                       !- Surface Rendering Name
  {a1c0e739-1423-4cf2-9895-9650eb177dd5}, !- Layer 1
  {5cc69598-e7cb-425d-aee2-41f22415d896}, !- Layer 2
  {76e36bf6-888d-410e-b035-273340a9467c}, !- Layer 3
  {7e429d56-acfe-43aa-b576-e4898597e9d7}; !- Layer 4

OS:StandardsInformation:Construction,
  {97e1940e-4bb3-4190-830c-fc5eb45ef8e0}, !- Handle
  {605b9faf-e928-418a-889d-c0481fa0dbcf}, !- Construction Name
  ExteriorWall,                           !- Intended Surface Type
  Mass;                                   !- Standards Construction Type

OS:Construction,
  {98948cf8-2879-4f10-889a-5d8048ec31bd}, !- Handle
  ASHRAE 189.1-2009 ExtWall Mass ClimateZone alt-res 5, !- Name
  ,                                       !- Surface Rendering Name
  {a1c0e739-1423-4cf2-9895-9650eb177dd5}, !- Layer 1
  {5cc69598-e7cb-425d-aee2-41f22415d896}, !- Layer 2
  {a89c5fd4-b0f2-4ccb-b4f3-03e40fdabb7f}, !- Layer 3
  {7e429d56-acfe-43aa-b576-e4898597e9d7}; !- Layer 4

OS:StandardsInformation:Construction,
  {a366d055-f9c1-4e0b-bf0b-b2201efff0f4}, !- Handle
  {98948cf8-2879-4f10-889a-5d8048ec31bd}, !- Construction Name
  ExteriorWall,                           !- Intended Surface Type
  Mass;                                   !- Standards Construction Type

OS:Construction,
  {2f885886-819d-4695-80b3-3fcbd0c3ac32}, !- Handle
  ASHRAE 189.1-2009 ExtWall Mass ClimateZone alt-res 6, !- Name
  ,                                       !- Surface Rendering Name
  {a1c0e739-1423-4cf2-9895-9650eb177dd5}, !- Layer 1
  {5cc69598-e7cb-425d-aee2-41f22415d896}, !- Layer 2
  {62b2e199-16f5-4cda-9020-808de2b7140b}, !- Layer 3
  {7e429d56-acfe-43aa-b576-e4898597e9d7}; !- Layer 4

OS:StandardsInformation:Construction,
  {25ca2cf1-a5b2-4dde-9f1b-03e6488306d4}, !- Handle
  {2f885886-819d-4695-80b3-3fcbd0c3ac32}, !- Construction Name
  ExteriorWall,                           !- Intended Surface Type
  Mass;                                   !- Standards Construction Type

OS:Construction,
  {417ba983-a6f0-46d2-a4c1-b9620b2ba296}, !- Handle
  ASHRAE 189.1-2009 ExtWall Mass ClimateZone alt-res 7, !- Name
  ,                                       !- Surface Rendering Name
  {a1c0e739-1423-4cf2-9895-9650eb177dd5}, !- Layer 1
  {5cc69598-e7cb-425d-aee2-41f22415d896}, !- Layer 2
  {62b2e199-16f5-4cda-9020-808de2b7140b}, !- Layer 3
  {7e429d56-acfe-43aa-b576-e4898597e9d7}; !- Layer 4

OS:StandardsInformation:Construction,
  {a9400c90-34c4-46f3-955c-21ee74449451}, !- Handle
  {417ba983-a6f0-46d2-a4c1-b9620b2ba296}, !- Construction Name
  ExteriorWall,                           !- Intended Surface Type
  Mass;                                   !- Standards Construction Type

OS:Construction,
  {271896b6-a493-4c56-8afe-332d5a8bdb46}, !- Handle
  ASHRAE 189.1-2009 ExtWall Mass ClimateZone alt-res 8, !- Name