
OS:Version,
  {06df7f32-792e-4b69-9dbb-7760bf51b6a6}, !- Handle
  1.3.0;                                  !- Version Identifier

OS:Construction,
  {ec0a8956-88ec-4fdd-b01b-9044bec54a3e}, !- Handle
  ASHRAE 189.1-2009 AtticFloor ClimateZone 1-8, !- Name
  ,                                       !- Surface Rendering Name
  {4ca9cfb4-7090-4656-9fd8-c887870b34b4}, !- Layer 1
  {33795a0c-27ac-437b-9387-b2d14903600b}, !- Layer 2
  {4ca9cfb4-7090-4656-9fd8-c887870b34b4}; !- Layer 3

OS:StandardsInformation:Construction,
  {3ab3122c-de55-4a34-ac14-5dbeeb768f91}, !- Handle
  {ec0a8956-88ec-4fdd-b01b-9044bec54a3e}, !- Construction Name
  AtticFloor,                             !- Intended Surface Type
  WoodFramed;                             !- Standards Construction Type

OS:Material,
  {4ca9cfb4-7090-4656-9fd8-c887870b34b4}, !- Handle
  1/2IN Gypsum,                           !- Name
  Smooth,                                 !- Roughness
  0.0127,                                 !- Thickness {m}
  0.16,                                   !- Conductivity {W/m-K}
  784.9,                                  !- Density {kg/m3}
  830.000000000001,                       !- Specific Heat {J/kg-K}
  0.9,                                    !- Thermal Absorptance
  0.92,                                   !- Solar Absorptance
  0.92;                                   !- Visible Absorptance

OS:Material,
  {33795a0c-27ac-437b-9387-b2d14903600b}, !- Handle
  AtticFloor Insulation,                  !- Name
  MediumRough,                            !- Roughness
  0.2379,                                 !- Thickness {m}
  0.049,                                  !- Conductivity {W/m-K}
  265,                                    !- Density {kg/m3}
  836.800000000001,                       !- Specific Heat {J/kg-K}
  0.9,                                    !- Thermal Absorptance
  0.7,                                    !- Solar Absorptance
  0.7;                                    !- Visible Absorptance

OS:Construction,
  {badd4b6e-de75-40b6-804c-ce38d8b07c87}, !- Handle
  ASHRAE 189.1-2009 ExtRoof IEAD ClimateZone 1, !- Name
  ,                                       !- Surface Rendering Name
  {50fa04e3-c72a-45eb-bc0d-730d76583b96}, !- Layer 1
  {9ac41042-43b6-4b6f-a525-b25dcf4b3f9d}, !- Layer 2
  {410b4480-9384-4170-827d-2fa6ab3fe49a}; !- Layer 3

OS:StandardsInformation:Construction,
  {21095592-eb12-4525-8946-696650e29a1d}, !- Handle
  {badd4b6e-de75-40b6-804c-ce38d8b07c87}, !- Construction Name
  ExteriorRoof,                           !- Intended Surface Type
  IEAD;                                   !- Standards Construction Type

OS:Material,
  {50fa04e3-c72a-45eb-bc0d-730d76583b96}, !- Handle
  Roof Membrane,                          !- Name
  VeryRough,                              !- Roughness
  0.0095,                                 !- Thickness {m}
  0.16,                                   !- Conductivity {W/m-K}
  1121.29,                                !- Density {kg/m3}
  1460,                                   !- Specific Heat {J/kg-K}
  0.9,                                    !- Thermal Absorptance
  0.7,                                    !- Solar Absorptance
  0.7;                                    !- Visible Absorptance

OS:Material,
  {9ac41042-43b6-4b6f-a525-b25dcf4b3f9d}, !- Handle
  Roof Insulation [18],                   !- Name
  MediumRough,                            !- Roughness
  0.1693,                                 !- Thickness {m}
  0.049,                                  !- Conductivity {W/m-K}
  265,                                    !- Density {kg/m3}
  836.800000000001,                       !- Specific Heat {J/kg-K}
  0.9,                                    !- Thermal Absorptance
  0.7,                                    !- Solar Absorptance
  0.7;                                    !- Visible Absorptance

OS:Material,
  {410b4480-9384-4170-827d-2fa6ab3fe49a}, !- Handle
  Metal Decking,                          !- Name
  MediumSmooth,                           !- Roughness
  0.0015,                                 !- Thickness {m}
  45.006,                                 !- Conductivity {W/m-K}
  7680,                                   !- Density {kg/m3}
  418.4,                                  !- Specific Heat {J/kg-K}
  0.9,                                    !- Thermal Absorptance
  0.7,                                    !- Solar Absorptance
  0.3;                                    !- Visible Absorptance

OS:Construction,
  {4558f6d0-ac6f-4438-8f83-0e38f903c14b}, !- Handle
  ASHRAE 189.1-2009 ExtRoof IEAD ClimateZone 2-5, !- Name
  ,                                       !- Surface Rendering Name
  {50fa04e3-c72a-45eb-bc0d-730d76583b96}, !- Layer 1
  {9aa255b6-5397-414e-90c5-f7de613435ff}, !- Layer 2
  {410b4480-9384-4170-827d-2fa6ab3fe49a}; !- Layer 3

OS:StandardsInformation:Construction,
  {77ba851f-aff8-4717-8e86-9f20743f5f42}, !- Handle
  {4558f6d0-ac6f-4438-8f83-0e38f903c14b}, !- Construction Name
  ExteriorRoof,                           !- Intended Surface Type
  IEAD;                                   !- Standards Construction Type

OS:Material,
  {9aa255b6-5397-414e-90c5-f7de613435ff}, !- Handle
  Roof Insulation [21],                   !- Name
  MediumRough,                            !- Roughness
  0.2105,                                 !- Thickness {m}
  0.049,                                  !- Conductivity {W/m-K}
  265,                                    !- Density {kg/m3}
  836.800000000001,                       !- Specific Heat {J/kg-K}
  0.9,                                    !- Thermal Absorptance
  0.7,                                    !- Solar Absorptance
  0.7;                                    !- Visible Absorptance

OS:Construction,
  {715b29f8-857e-4fb1-b92d-2c307326e1ef}, !- Handle
  ASHRAE 189.1-2009 ExtRoof IEAD ClimateZone 6, !- Name
  ,                                       !- Surface Rendering Name
  {50fa04e3-c72a-45eb-bc0d-730d76583b96}, !- Layer 1
  {19ba714a-ec95-4342-89f7-bda808c3ff12}, !- Layer 2
  {410b4480-9384-4170-827d-2fa6ab3fe49a}; !- Layer 3

OS:StandardsInformation:Construction,
  {f19ed648-7e84-4e93-9873-3cf247406afb}, !- Handle
  {715b29f8-857e-4fb1-b92d-2c307326e1ef}, !- Construction Name
  ExteriorRoof,                           !- Intended Surface Type
  IEAD;                                   !- Standards Construction Type

OS:Material,
  {19ba714a-ec95-4342-89f7-bda808c3ff12}, !- Handle
  Roof Insulation [24],                   !- Name
  MediumRough,                            !- Roughness
  0.260100000000001,                      !- Thickness {m}
  0.049,                                  !- Conductivity {W/m-K}
  265,                                    !- Density {kg/m3}
  836.800000000001,                       !- Specific Heat {J/kg-K}
  0.9,                                    !- Thermal Absorptance
  0.7,                                    !- Solar Absorptance
  0.7;                                    !- Visible Absorptance

OS:Construction,
  {0441ca17-caf3-4f9e-b8d7-8e1705ff6680}, !- Handle
  ASHRAE 189.1-2009 ExtRoof IEAD ClimateZone 7-8, !- Name
  ,                                       !- Surface Rendering Name
  {50fa04e3-c72a-45eb-bc0d-730d76583b96}, !- Layer 1
  {61fd613e-73c5-44ed-9942-8beca0f39bfb}, !- Layer 2
  {410b4480-9384-4170-827d-2fa6ab3fe49a}; !- Layer 3

OS:StandardsInformation:Construction,
  {5a0d7c0f-14ac-408b-b829-4b18d39b2a61}, !- Handle
  {0441ca17-caf3-4f9e-b8d7-8e1705ff6680}, !- Construction Name
  ExteriorRoof,                           !- Intended Surface Type
  IEAD;                                   !- Standards Construction Type

OS:Material,
  {61fd613e-73c5-44ed-9942-8beca0f39bfb}, !- Handle
  Roof Insulation [26],                   !- Name
  MediumRough,                            !- Roughness
  0.2941,                                 !- Thickness {m}
  0.049,                                  !- Conductivity {W/m-K}
  265,                                    !- Density {kg/m3}
  836.800000000001,                       !- Specific Heat {J/kg-K}
  0.9,                                    !- Thermal Absorptance
  0.7,                                    !- Solar Absorptance
  0.7;                                    !- Visible Absorptance

OS:Construction,
  {fda0690a-8c66-4d95-b3e1-5360eeb9ba50}, !- Handle
  ASHRAE 189.1-2009 ExtRoof Metal ClimateZone 1, !- Name
  ,                                       !- Surface Rendering Name
  {1ff2c433-0f35-4b66-b8e9-7287ce97dbf2}, !- Layer 1
  {d89a8a2e-fc0a-4332-8c67-bd3c2ea93ddf}; !- Layer 2

OS:StandardsInformation:Construction,
  {0477f9a8-e8d2-4c74-97df-f8bd9a5b0e03}, !- Handle
  {fda0690a-8c66-4d95-b3e1-5360eeb9ba50}, !- Construction Name
  ExteriorRoof,                           !- Intended Surface Type
  Metal;                                  !- Standards Construction Type

OS:Material,
  {1ff2c433-0f35-4b66-b8e9-7287ce97dbf2}, !- Handle
  Metal Roofing,                          !- Name
  MediumSmooth,                           !- Roughness
  0.0015,                                 !- Thickness {m}
  45.006,                                 !- Conductivity {W/m-K}
  7680,                                   !- Density {kg/m3}
  418.4,                                  !- Specific Heat {J/kg-K}
  0.9,                                    !- Thermal Absorptance
  0.3,                                    !- Solar Absorptance
  0.3;                                    !- Visible Absorptance

OS:Material,
  {d89a8a2e-fc0a-4332-8c67-bd3c2ea93ddf}, !- Handle
  Roof Insulation [19],                   !- Name
  MediumRough,                            !- Roughness
  0.1868,                                 !- Thickness {m}
  0.049,                                  !- Conductivity {W/m-K}
  265,                                    !- Density {kg/m3}
  836.800000000001,                       !- Specific Heat {J/kg-K}
  0.9,                                    !- Thermal Absorptance
  0.7,                                    !- Solar Absorptance
  0.7;                                    !- Visible Absorptance

OS:Construction,
  {62d5caaa-a2e3-4c70-957b-4e6ac050c373}, !- Handle
  ASHRAE 189.1-2009 ExtRoof Metal ClimateZone 2-5, !- Name
  ,                                       !- Surface Rendering Name
  {1ff2c433-0f35-4b66-b8e9-7287ce97dbf2}, !- Layer 1
  {4989834e-ae48-4ad4-9bdb-85bc74bf3311}; !- Layer 2

OS:StandardsInformation:Construction,
  {18914184-a8a6-496d-9784-dab2ec16121f}, !- Handle
  {62d5caaa-a2e3-4c70-957b-4e6ac050c373}, !- Construction Name
  ExteriorRoof,                           !- Intended Surface Type
  Metal;                                  !- Standards Construction Type

OS:Material,
  {4989834e-ae48-4ad4-9bdb-85bc74bf3311}, !- Handle
  Roof Insulation [22],                   !- Name
  MediumRough,                            !- Roughness
  0.2358,                                 !- Thickness {m}
  0.049,                                  !- Conductivity {W/m-K}
  265,                                    !- Density {kg/m3}
  836.800000000001,                       !- Specific Heat {J/kg-K}
  0.9,                                    !- Thermal Absorptance
  0.7,                                    !- Solar Absorptance
  0.7;                                    !- Visible Absorptance

OS:Construction,
  {45114a42-edf6-4288-92ab-0636eecbfa5e}, !- Handle
  ASHRAE 189.1-2009 ExtRoof Metal ClimateZone 6, !- Name
  ,                                       !- Surface Rendering Name
  {1ff2c433-0f35-4b66-b8e9-7287ce97dbf2}, !- Layer 1
  {c353d858-ee0c-4113-8b34-6c6a919df2c1}; !- Layer 2

OS:StandardsInformation:Construction,
  {a46b4d84-953f-4e7f-ad82-e43abd83361d}, !- Handle
  {45114a42-edf6-4288-92ab-0636eecbfa5e}, !- Construction Name
  ExteriorRoof,                           !- Intended Surface Type
  Metal;                                  !- Standards Construction Type

OS:Material,
  {c353d858-ee0c-4113-8b34-6c6a919df2c1}, !- Handle
  Roof Insulation [25],                   !- Name
  MediumRough,                            !- Roughness
  0.263,                                  !- Thickness {m}
  0.049,                                  !- Conductivity {W/m-K}
  265,                                    !- Density {kg/m3}
  836.800000000001,                       !- Specific Heat {J/kg-K}
  0.9,                                    !- Thermal Absorptance
  0.7,                                    !- Solar Absorptance
  0.7;                                    !- Visible Absorptance

OS:Construction,
  {76cf2024-7486-4808-a1f8-eef21f75ce7b}, !- Handle
  ASHRAE 189.1-2009 ExtRoof Metal ClimateZone 7-8, !- Name
  ,                                       !- Surface Rendering Name
  {1ff2c433-0f35-4b66-b8e9-7287ce97dbf2}, !- Layer 1
  {f0721e88-dab9-40e2-a62d-4b95a7e470f1}; !- Layer 2

OS:StandardsInformation:Construction,
  {2f17fa0a-d75d-4909-b500-13288bc51154}, !- Handle
  {76cf2024-7486-4808-a1f8-eef21f75ce7b}, !- Construction Name
  ExteriorRoof,                           !- Intended Surface Type
  Metal;                                  !- Standards Construction Type

OS:Material,
  {f0721e88-dab9-40e2-a62d-4b95a7e470f1}, !- Handle
  Roof Insulation [27],                   !- Name
  MediumRough,                            !- Roughness
  0.297000000000001,                      !- Thickness {m}
  0.049,                                  !- Conductivity {W/m-K}
  265,                                    !- Density {kg/m3}
  836.800000000001,                       !- Specific Heat {J/kg-K}
  0.9,                                    !- Thermal Absorptance
  0.7,                                    !- Solar Absorptance
  0.7;                                    !- Visible Absorptance

OS:Construction,
  {6027234a-a4f5-41c1-a821-6a93cc663517}, !- Handle
  ASHRAE 189.1-2009 ExtWall Mass ClimateZone 1, !- Name
  ,                                       !- Surface Rendering Name
  {3c096fd9-5d7e-4a9d-8586-eb3e292cf75c}, !- Layer 1
  {19f7a2ff-b90f-4261-8b50-2e77d87960a6}, !- Layer 2
  {7840bdce-b6da-4991-bc8b-f15536881f33}, !- Layer 3
  {4ca9cfb4-7090-4656-9fd8-c887870b34b4}; !- Layer 4

OS:StandardsInformation:Construction,
  {6775ac53-98d2-4774-aff6-0689e8e1c695}, !- Handle
  {6027234a-a4f5-41c1-a821-6a93cc663517}, !- Construction Name
  ExteriorWall,                           !- Intended Surface Type
  Mass;                                   !- Standards Construction Type

OS:Material,
  {3c096fd9-5d7e-4a9d-8586-eb3e292cf75c}, !- Handle
  1IN Stucco,                             !- Name
  Smooth,                                 !- Roughness
  0.0253,                                 !- Thickness {m}
  0.691799999999999,                      !- Conductivity {W/m-K}
  1858,                                   !- Density {kg/m3}
  836.999999999999,                       !- Specific Heat {J/kg-K}
  0.9,                                    !- Thermal Absorptance
  0.92,                                   !- Solar Absorptance
  0.92;                                   !- Visible Absorptance

OS:Material,
  {19f7a2ff-b90f-4261-8b50-2e77d87960a6}, !- Handle
  8IN Concrete HW,                        !- Name
  MediumRough,                            !- Roughness
  0.2033,                                 !- Thickness {m}
  1.72959999999999,                       !- Conductivity {W/m-K}
  2242.99999999999,                       !- Density {kg/m3}
  836.999999999999,                       !- Specific Heat {J/kg-K}
  0.9,                                    !- Thermal Absorptance
  0.65,                                   !- Solar Absorptance
  0.65;                                   !- Visible Absorptance

OS:Material,
  {7840bdce-b6da-4991-bc8b-f15536881f33}, !- Handle
  Wall Insulation [31],                   !- Name
  MediumRough,                            !- Roughness
  0.0337000000000001,                     !- Thickness {m}
  0.0432,                                 !- Conductivity {W/m-K}
  91,                                     !- Density {kg/m3}
  836.999999999999,                       !- Specific Heat {J/kg-K}
  0.9,                                    !- Thermal Absorptance
  0.5,                                    !- Solar Absorptance
  0.5;                                    !- Visible Absorptance

OS:Construction,
  {6686b1df-b718-40e5-9403-c3b25231243d}, !- Handle
  ASHRAE 189.1-2009 ExtWall Mass ClimateZone 2, !- Name
  ,                                       !- Surface Rendering Name
  {3c096fd9-5d7e-4a9d-8586-eb3e292cf75c}, !- Layer 1
  {19f7a2ff-b90f-4261-8b50-2e77d87960a6}, !- Layer 2
  {32644b96-a993-426b-b0eb-81547e233412}, !- Layer 3
  {4ca9cfb4-7090-4656-9fd8-c887870b34b4}; !- Layer 4

OS:StandardsInformation:Construction,
  {8c333b4f-4bf1-4fda-b001-8b131338b0c9}, !- Handle
  {6686b1df-b718-40e5-9403-c3b25231243d}, !- Construction Name
  ExteriorWall,                           !- Intended Surface Type
  Mass;                                   !- Standards Construction Type

OS:Material,
  {32644b96-a993-426b-b0eb-81547e233412}, !- Handle
  Wall Insulation [35],                   !- Name
  MediumRough,                            !- Roughness
  0.0452,                                 !- Thickness {m}
  0.0432,                                 !- Conductivity {W/m-K}
  91,                                     !- Density {kg/m3}
  836.999999999999,                       !- Specific Heat {J/kg-K}
  0.9,                                    !- Thermal Absorptance
  0.5,                                    !- Solar Absorptance
  0.5;                                    !- Visible Absorptance

OS:Construction,
  {f10337f2-336b-4e2b-8a38-9148a092050f}, !- Handle
  ASHRAE 189.1-2009 ExtWall Mass ClimateZone 3, !- Name
  ,                                       !- Surface Rendering Name
  {3c096fd9-5d7e-4a9d-8586-eb3e292cf75c}, !- Layer 1
  {19f7a2ff-b90f-4261-8b50-2e77d87960a6}, !- Layer 2
  {7f57210d-c533-4c1d-9c3c-eb1427a9ba58}, !- Layer 3
  {4ca9cfb4-7090-4656-9fd8-c887870b34b4}; !- Layer 4

OS:StandardsInformation:Construction,
  {8e51e823-a728-4734-af5c-4802d92ff551}, !- Handle
  {f10337f2-336b-4e2b-8a38-9148a092050f}, !- Construction Name
  ExteriorWall,                           !- Intended Surface Type
  Mass;                                   !- Standards Construction Type

OS:Material,
  {7f57210d-c533-4c1d-9c3c-eb1427a9ba58}, !- Handle
  Wall Insulation [36],                   !- Name
  MediumRough,                            !- Roughness
  0.0565999999999999,                     !- Thickness {m}
  0.0432,                                 !- Conductivity {W/m-K}
  91,                                     !- Density {kg/m3}
  836.999999999999,                       !- Specific Heat {J/kg-K}
  0.9,                                    !- Thermal Absorptance
  0.5,                                    !- Solar Absorptance
  0.5;                                    !- Visible Absorptance

OS:Construction,
  {404eef4f-9a57-4418-8d81-7e2de127bbb8}, !- Handle
  ASHRAE 189.1-2009 ExtWall Mass ClimateZone 4, !- Name
  ,                                       !- Surface Rendering Name
  {3c096fd9-5d7e-4a9d-8586-eb3e292cf75c}, !- Layer 1
  {19f7a2ff-b90f-4261-8b50-2e77d87960a6}, !- Layer 2
  {3e8f5d74-a902-489a-838c-95ab65dd3d40}, !- Layer 3
  {4ca9cfb4-7090-4656-9fd8-c887870b34b4}; !- Layer 4

OS:StandardsInformation:Construction,
  {a2d2f71f-693a-490d-9ece-0dcb4527259d}, !- Handle
  {404eef4f-9a57-4418-8d81-7e2de127bbb8}, !- Construction Name
  ExteriorWall,                           !- Intended Surface Type
  Mass;                                   !- Standards Construction Type

OS:Material,
  {3e8f5d74-a902-489a-838c-95ab65dd3d40}, !- Handle
  Wall Insulation [37],                   !- Name
  MediumRough,                            !- Roughness
  0.0680999999999999,                     !- Thickness {m}
  0.0432,                                 !- Conductivity {W/m-K}
  91,                                     !- Density {kg/m3}
  836.999999999999,                       !- Specific Heat {J/kg-K}
  0.9,                                    !- Thermal Absorptance
  0.5,                                    !- Solar Absorptance
  0.5;                                    !- Visible Absorptance

OS:Construction,
  {f6d9a0ef-ed71-44b1-9d95-7112334639b5}, !- Handle
  ASHRAE 189.1-2009 ExtWall Mass ClimateZone 5, !- Name
  ,                                       !- Surface Rendering Name
  {3c096fd9-5d7e-4a9d-8586-eb3e292cf75c}, !- Layer 1
  {19f7a2ff-b90f-4261-8b50-2e77d87960a6}, !- Layer 2
  {f3ed2384-f908-4c3e-85bf-8fc516caed87}, !- Layer 3
  {4ca9cfb4-7090-4656-9fd8-c887870b34b4}; !- Layer 4

OS:StandardsInformation:Construction,
  {0f4de1af-45d3-44f4-b095-93293eb58401}, !- Handle
  {f6d9a0ef-ed71-44b1-9d95-7112334639b5}, !- Construction Name
  ExteriorWall,                           !- Intended Surface Type
  Mass;                                   !- Standards Construction Type

OS:Material,
  {f3ed2384-f908-4c3e-85bf-8fc516caed87}, !- Handle
  Wall Insulation [40],                   !- Name
  MediumRough,                            !- Roughness
  0.0793999999999999,                     !- Thickness {m}
  0.0432,                                 !- Conductivity {W/m-K}
  91,                                     !- Density {kg/m3}
  836.999999999999,                       !- Specific Heat {J/kg-K}
  0.9,                                    !- Thermal Absorptance
  0.5,                                    !- Solar Absorptance
  0.5;                                    !- Visible Absorptance

OS:Construction,
  {cfc17dbf-7c46-451b-a8ae-ff55fed2bedd}, !- Handle
  ASHRAE 189.1-2009 ExtWall Mass ClimateZone 6, !- Name
  ,                                       !- Surface Rendering Name
  {3c096fd9-5d7e-4a9d-8586-eb3e292cf75c}, !- Layer 1
  {19f7a2ff-b90f-4261-8b50-2e77d87960a6}, !- Layer 2
  {18d90870-8883-424b-8e36-ac778f6e4711}, !- Layer 3
  {4ca9cfb4-7090-4656-9fd8-c887870b34b4}; !- Layer 4

OS:StandardsInformation:Construction,
  {637a28a8-800c-4abc-880b-9545ac5fde0c}, !- Handle
  {cfc17dbf-7c46-451b-a8ae-ff55fed2bedd}, !- Construction Name
  ExteriorWall,                           !- Intended Surface Type
  Mass;                                   !- Standards Construction Type

OS:Material,
  {18d90870-8883-424b-8e36-ac778f6e4711}, !- Handle
  Wall Insulation [42],                   !- Name
  MediumRough,                            !- Roughness
  0.0913999999999999,                     !- Thickness {m}
  0.0432,                                 !- Conductivity {W/m-K}
  91,                                     !- Density {kg/m3}
  836.999999999999,                       !- Specific Heat {J/kg-K}
  0.9,                                    !- Thermal Absorptance
  0.5,                                    !- Solar Absorptance
  0.5;                                    !- Visible Absorptance

OS:Construction,
  {80eb80eb-bd73-491f-9ea0-e562f826823a}, !- Handle
  ASHRAE 189.1-2009 ExtWall Mass ClimateZone 7-8, !- Name
  ,                                       !- Surface Rendering Name
  {3c096fd9-5d7e-4a9d-8586-eb3e292cf75c}, !- Layer 1
  {19f7a2ff-b90f-4261-8b50-2e77d87960a6}, !- Layer 2
  {9f15d6b5-00da-4dc1-b162-d35024eb807f}, !- Layer 3
  {4ca9cfb4-7090-4656-9fd8-c887870b34b4}; !- Layer 4

OS:StandardsInformation:Construction,
  {2ae73b76-7e2f-43b7-9621-5e1cfef46110}, !- Handle
  {80eb80eb-bd73-491f-9ea0-e562f826823a}, !- Construction Name
  ExteriorWall,                           !- Intended Surface Type
  Mass;                                   !- Standards Construction Type

OS:Material,
  {9f15d6b5-00da-4dc1-b162-d35024eb807f}, !- Handle
  Wall Insulation [44],                   !- Name
  MediumRough,                            !- Roughness
  0.1104,                                 !- Thickness {m}
  0.0432,                                 !- Conductivity {W/m-K}
  91,                                     !- Density {kg/m3}
  836.999999999999,                       !- Specific Heat {J/kg-K}
  0.9,                                    !- Thermal Absorptance
  0.5,                                    !- Solar Absorptance
  0.5;                                    !- Visible Absorptance

OS:Construction,
  {2f0e760a-4445-4836-bf80-adf520bd0ad5}, !- Handle
  ASHRAE 189.1-2009 ExtWall Mass ClimateZone alt-res 1, !- Name
  ,                                       !- Surface Rendering Name
  {3c096fd9-5d7e-4a9d-8586-eb3e292cf75c}, !- Layer 1
  {19f7a2ff-b90f-4261-8b50-2e77d87960a6}, !- Layer 2
  {32644b96-a993-426b-b0eb-81547e233412}, !- Layer 3
  {4ca9cfb4-7090-4656-9fd8-c887870b34b4}; !- Layer 4

OS:StandardsInformation:Construction,
  {c9529265-1e31-4aad-a66e-e52a1d0b85d2}, !- Handle
  {2f0e760a-4445-4836-bf80-adf520bd0ad5}, !- Construction Name
  ExteriorWall,                           !- Intended Surface Type
  Mass;                                   !- Standards Construction Type

OS:Construction,
  {6651484d-487e-4796-9ec6-0c96fadeb9c3}, !- Handle
  ASHRAE 189.1-2009 ExtWall Mass ClimateZone alt-res 2, !- Name
  ,                                       !- Surface Rendering Name
  {3c096fd9-5d7e-4a9d-8586-eb3e292cf75c}, !- Layer 1
  {19f7a2ff-b90f-4261-8b50-2e77d87960a6}, !- Layer 2
  {7f57210d-c533-4c1d-9c3c-eb1427a9ba58}, !- Layer 3
  {4ca9cfb4-7090-4656-9fd8-c887870b34b4}; !- Layer 4

OS:StandardsInformation:Construction,
  {0fc646fa-b057-40aa-8e43-edaf40998f3c}, !- Handle
  {6651484d-487e-4796-9ec6-0c96fadeb9c3}, !- Construction Name
  ExteriorWall,                           !- Intended Surface Type
  Mass;                                   !- Standards Construction Type

OS:Construction,
  {f9384412-2c4f-46d2-9539-cc3ea9fcce71}, !- Handle
  ASHRAE 189.1-2009 ExtWall Mass ClimateZone alt-res 3, !- Name
  ,                                       !- Surface Rendering Name
  {3c096fd9-5d7e-4a9d-8586-eb3e292cf75c}, !- Layer 1
  {19f7a2ff-b90f-4261-8b50-2e77d87960a6}, !- Layer 2
  {3e8f5d74-a902-489a-838c-95ab65dd3d40}, !- Layer 3
  {4ca9cfb4-7090-4656-9fd8-c887870b34b4}; !- Layer 4

OS:StandardsInformation:Construction,
  {e947c5bf-6f31-486a-9e21-5fd7bdfcdfee}, !- Handle
  {f9384412-2c4f-46d2-9539-cc3ea9fcce71}, !- Construction Name
  ExteriorWall,                           !- Intended Surface Type
  Mass;                                   !- Standards Construction Type

OS:Construction,
  {182b5fda-9c17-439b-9ab3-904f556c93fa}, !- Handle
  ASHRAE 189.1-2009 ExtWall Mass ClimateZone alt-res 4, !- Name
  ,                                       !- Surface Rendering Name
  {3c096fd9-5d7e-4a9d-8586-eb3e292cf75c}, !- Layer 1
  {19f7a2ff-b90f-4261-8b50-2e77d87960a6}, !- Layer 2
  {f3ed2384-f908-4c3e-85bf-8fc516caed87}, !- Layer 3
  {4ca9cfb4-7090-4656-9fd8-c887870b34b4}; !- Layer 4

OS:StandardsInformation:Construction,
  {6c8a2f11-3c7b-4e72-8c42-b361a6b5d89c}, !- Handle
  {182b5fda-9c17-439b-9ab3-904f556c93fa}, !- Construction Name
  ExteriorWall,                           !- Intended Surface Type
  Mass;                                   !- Standards Construction Type

OS:Construction,
  {2d3a2847-c31e-4c99-8b06-f2da7f9ce050}, !- Handle
  ASHRAE 189.1-2009 ExtWall Mass ClimateZone alt-res 5, !- Name
  ,                                       !- Surface Rendering Name
  {3c096fd9-5d7e-4a9d-8586-eb3e292cf75c}, !- Layer 1
  {19f7a2ff-b90f-4261-8b50-2e77d87960a6}, !- Layer 2
  {18d90870-8883-424b-8e36-ac778f6e4711}, !- Layer 3
  {4ca9cfb4-7090-4656-9fd8-c887870b34b4}; !- Layer 4

OS:StandardsInformation:Construction,
  {bd4bdb62-9fb2-4aff-8c7e-7d0bd4e84f65}, !- Handle
  {2d3a2847-c31e-4c99-8b06-f2da7f9ce050}, !- Construction Name
  ExteriorWall,                           !- Intended Surface Type
  Mass;                                   !- Standards Construction Type

OS:Construction,
  {8e5479da-d086-45e2-aa9e-219473974c99}, !- Handle
  ASHRAE 189.1-2009 ExtWall Mass ClimateZone alt-res 6, !- Name
  ,                                       !- Surface Rendering Name
  {3c096fd9-5d7e-4a9d-8586-eb3e292cf75c}, !- Layer 1
  {19f7a2ff-b90f-4261-8b50-2e77d87960a6}, !- Layer 2
  {9f15d6b5-00da-4dc1-b162-d35024eb807f}, !- Layer 3
  {4ca9cfb4-7090-4656-9fd8-c887870b34b4}; !- Layer 4

OS:StandardsInformation:Construction,
  {e9f7789b-5c2a-4e72-9c2e-f256953477e0}, !- Handle
  {8e5479da-d086-45e2-aa9e-219473974c99}, !- Construction Name
  ExteriorWall,                           !- Intended Surface Type
  Mass;                                   !- Standards Construction Type

OS:Construction,
  {5b1fb108-9d0d-423f-9fc5-928ad6b92a6c}, !- Handle
  ASHRAE 189.1-2009 ExtWall Mass ClimateZone alt-res 7, !- Name
  ,                                       !- Surface Rendering Name
  {3c096fd9-5d7e-4a9d-8586-eb3e292cf75c}, !- Layer 1
  {19f7a2ff-b90f-4261-8b50-2e77d87960a6}, !- Layer 2
  {9f15d6b5-00da-4dc1-b162-d35024eb807f}, !- Layer 3
  {4ca9cfb4-7090-4656-9fd8-c887870b34b4}; !- Layer 4

OS:StandardsInformation:Construction,
  {bb25553c-5cd3-4c8e-a245-5db361b2c1c9}, !- Handle
  {5b1fb108-9d0d-423f-9fc5-928ad6b92a6c}, !- Construction Name
  ExteriorWall,                           !- Intended Surface Type
  Mass;                                   !- Standards Construction Type

OS:Construction,
  {db23cd01-bc2f-4bc0-a8bd-4f88e7c0e690}, !- Handle
  ASHRAE 189.1-2009 ExtWall Mass ClimateZone alt-res 8, !- Name