
OS:Version,
  {4dbadb3d-b663-4f32-9e83-57adb7ad6701}, !- Handle
  1.2.3;                                  !- Version Identifier

OS:Construction,
  {a80a5bbf-35f8-464a-8a65-4c563d4e9aef}, !- Handle
  ASHRAE 189.1-2009 AtticFloor ClimateZone 1-8, !- Name
  ,                                       !- Surface Rendering Name
  {3df43d44-3677-4087-a3b3-0ce5c1cc3a4b}, !- Layer 1
  {461a4fab-3412-4092-b371-43ad5d37b377}, !- Layer 2
  {3df43d44-3677-4087-a3b3-0ce5c1cc3a4b}; !- Layer 3

OS:StandardsInformation:Construction,
  {7867f27f-8ba5-48e1-8e93-0577c1c5de4d}, !- Handle
  {a80a5bbf-35f8-464a-8a65-4c563d4e9aef}, !- Construction Name
  AtticFloor,                             !- Intended Surface Type
  WoodFramed;                             !- Standards Construction Type

OS:Material,
  {3df43d44-3677-4087-a3b3-0ce5c1cc3a4b}, !- Handle
  1/2IN Gypsum,                           !- Name
  Smooth,                                 !- Roughness
  0.0127,                                 !- Thickness {m}
  0.16,                                   !- Conductivity {W/m-K}
  784.9,                                  !- Density {kg/m3}
  830.000000000001,                       !- Specific Heat {J/kg-K}
  0.9,                                    !- Thermal Absorptance
  0.92,                                   !- Solar Absorptance
  0.92;                                   !- Visible Absorptance

OS:Material,
  {461a4fab-3412-4092-b371-43ad5d37b377}, !- Handle
  AtticFloor Insulation,                  !- Name
  MediumRough,                            !- Roughness
  0.2379,                                 !- Thickness {m}
  0.049,                                  !- Conductivity {W/m-K}
  265,                                    !- Density {kg/m3}
  836.800000000001,                       !- Specific Heat {J/kg-K}
  0.9,                                    !- Thermal Absorptance
  0.7,                                    !- Solar Absorptance
  0.7;                                    !- Visible Absorptance

OS:Construction,
  {f9e9ab26-c8cb-4edc-8370-a338f74314c7}, !- Handle
  ASHRAE 189.1-2009 ExtRoof IEAD ClimateZone 1, !- Name
  ,                                       !- Surface Rendering Name
  {b276aead-998a-45b3-89b5-fa6b0da13319}, !- Layer 1
  {74d440db-5034-4078-a7ee-9c30a079b5dd}, !- Layer 2
  {8b7ab1c7-8afa-40fd-8513-b8d2fa7530a0}; !- Layer 3

OS:StandardsInformation:Construction,
  {4d815670-e8e5-472b-9613-1440cbb4d999}, !- Handle
  {f9e9ab26-c8cb-4edc-8370-a338f74314c7}, !- Construction Name
  ExteriorRoof,                           !- Intended Surface Type
  IEAD;                                   !- Standards Construction Type

OS:Material,
  {b276aead-998a-45b3-89b5-fa6b0da13319}, !- Handle
  Roof Membrane,                          !- Name
  VeryRough,                              !- Roughness
  0.0095,                                 !- Thickness {m}
  0.16,                                   !- Conductivity {W/m-K}
  1121.29,                                !- Density {kg/m3}
  1460,                                   !- Specific Heat {J/kg-K}
  0.9,                                    !- Thermal Absorptance
  0.7,                                    !- Solar Absorptance
  0.7;                                    !- Visible Absorptance

OS:Material,
  {74d440db-5034-4078-a7ee-9c30a079b5dd}, !- Handle
  Roof Insulation [18],                   !- Name
  MediumRough,                            !- Roughness
  0.1693,                                 !- Thickness {m}
  0.049,                                  !- Conductivity {W/m-K}
  265,                                    !- Density {kg/m3}
  836.800000000001,                       !- Specific Heat {J/kg-K}
  0.9,                                    !- Thermal Absorptance
  0.7,                                    !- Solar Absorptance
  0.7;                                    !- Visible Absorptance

OS:Material,
  {8b7ab1c7-8afa-40fd-8513-b8d2fa7530a0}, !- Handle
  Metal Decking,                          !- Name
  MediumSmooth,                           !- Roughness
  0.0015,                                 !- Thickness {m}
  45.006,                                 !- Conductivity {W/m-K}
  7680,                                   !- Density {kg/m3}
  418.4,                                  !- Specific Heat {J/kg-K}
  0.9,                                    !- Thermal Absorptance
  0.7,                                    !- Solar Absorptance
  0.3;                                    !- Visible Absorptance

OS:Construction,
  {fe53e004-d11e-4e27-bc56-abfec1173d52}, !- Handle
  ASHRAE 189.1-2009 ExtRoof IEAD ClimateZone 2-5, !- Name
  ,                                       !- Surface Rendering Name
  {b276aead-998a-45b3-89b5-fa6b0da13319}, !- Layer 1
  {19352391-a4e4-4d94-9ce8-c4c3b25c318b}, !- Layer 2
  {8b7ab1c7-8afa-40fd-8513-b8d2fa7530a0}; !- Layer 3

OS:StandardsInformation:Construction,
  {6f01a1c6-8083-4be8-b899-8b908d1e36ed}, !- Handle
  {fe53e004-d11e-4e27-bc56-abfec1173d52}, !- Construction Name
  ExteriorRoof,                           !- Intended Surface Type
  IEAD;                                   !- Standards Construction Type

OS:Material,
  {19352391-a4e4-4d94-9ce8-c4c3b25c318b}, !- Handle
  Roof Insulation [21],                   !- Name
  MediumRough,                            !- Roughness
  0.2105,                                 !- Thickness {m}
  0.049,                                  !- Conductivity {W/m-K}
  265,                                    !- Density {kg/m3}
  836.800000000001,                       !- Specific Heat {J/kg-K}
  0.9,                                    !- Thermal Absorptance
  0.7,                                    !- Solar Absorptance
  0.7;                                    !- Visible Absorptance

OS:Construction,
  {6a96aeff-cc96-4695-b7f6-6a13df848637}, !- Handle
  ASHRAE 189.1-2009 ExtRoof IEAD ClimateZone 6, !- Name
  ,                                       !- Surface Rendering Name
  {b276aead-998a-45b3-89b5-fa6b0da13319}, !- Layer 1
  {c6a507aa-b902-4429-91fe-24a726096570}, !- Layer 2
  {8b7ab1c7-8afa-40fd-8513-b8d2fa7530a0}; !- Layer 3

OS:StandardsInformation:Construction,
  {5b388ab3-8193-468c-b4a1-ce3d62637841}, !- Handle
  {6a96aeff-cc96-4695-b7f6-6a13df848637}, !- Construction Name
  ExteriorRoof,                           !- Intended Surface Type
  IEAD;                                   !- Standards Construction Type

OS:Material,
  {c6a507aa-b902-4429-91fe-24a726096570}, !- Handle
  Roof Insulation [24],                   !- Name
  MediumRough,                            !- Roughness
  0.260100000000001,                      !- Thickness {m}
  0.049,                                  !- Conductivity {W/m-K}
  265,                                    !- Density {kg/m3}
  836.800000000001,                       !- Specific Heat {J/kg-K}
  0.9,                                    !- Thermal Absorptance
  0.7,                                    !- Solar Absorptance
  0.7;                                    !- Visible Absorptance

OS:Construction,
  {669d9573-4b0f-4374-895d-bc3e8b26d748}, !- Handle
  ASHRAE 189.1-2009 ExtRoof IEAD ClimateZone 7-8, !- Name
  ,                                       !- Surface Rendering Name
  {b276aead-998a-45b3-89b5-fa6b0da13319}, !- Layer 1
  {e463d5d3-1074-4969-986c-d48a912eda32}, !- Layer 2
  {8b7ab1c7-8afa-40fd-8513-b8d2fa7530a0}; !- Layer 3

OS:StandardsInformation:Construction,
  {a4930b2f-50e7-4dc2-b1d5-ffec3e7ca296}, !- Handle
  {669d9573-4b0f-4374-895d-bc3e8b26d748}, !- Construction Name
  ExteriorRoof,                           !- Intended Surface Type
  IEAD;                                   !- Standards Construction Type

OS:Material,
  {e463d5d3-1074-4969-986c-d48a912eda32}, !- Handle
  Roof Insulation [26],                   !- Name
  MediumRough,                            !- Roughness
  0.2941,                                 !- Thickness {m}
  0.049,                                  !- Conductivity {W/m-K}
  265,                                    !- Density {kg/m3}
  836.800000000001,                       !- Specific Heat {J/kg-K}
  0.9,                                    !- Thermal Absorptance
  0.7,                                    !- Solar Absorptance
  0.7;                                    !- Visible Absorptance

OS:Construction,
  {b774f201-2577-45cc-a93d-b591b2cdd687}, !- Handle
  ASHRAE 189.1-2009 ExtRoof Metal ClimateZone 1, !- Name
  ,                                       !- Surface Rendering Name
  {305b28ba-ae11-4e22-acf2-6f84c64b2d8a}, !- Layer 1
  {65219c4f-d3e1-48f6-9538-0c31ce3f85fb}; !- Layer 2

OS:StandardsInformation:Construction,
  {ca93198b-3b99-4c54-95bb-4ed53d07c4f1}, !- Handle
  {b774f201-2577-45cc-a93d-b591b2cdd687}, !- Construction Name
  ExteriorRoof,                           !- Intended Surface Type
  Metal;                                  !- Standards Construction Type

OS:Material,
  {305b28ba-ae11-4e22-acf2-6f84c64b2d8a}, !- Handle
  Metal Roofing,                          !- Name
  MediumSmooth,                           !- Roughness
  0.0015,                                 !- Thickness {m}
  45.006,                                 !- Conductivity {W/m-K}
  7680,                                   !- Density {kg/m3}
  418.4,                                  !- Specific Heat {J/kg-K}
  0.9,                                    !- Thermal Absorptance
  0.3,                                    !- Solar Absorptance
  0.3;                                    !- Visible Absorptance

OS:Material,
  {65219c4f-d3e1-48f6-9538-0c31ce3f85fb}, !- Handle
  Roof Insulation [19],                   !- Name
  MediumRough,                            !- Roughness
  0.1868,                                 !- Thickness {m}
  0.049,                                  !- Conductivity {W/m-K}
  265,                                    !- Density {kg/m3}
  836.800000000001,                       !- Specific Heat {J/kg-K}
  0.9,                                    !- Thermal Absorptance
  0.7,                                    !- Solar Absorptance
  0.7;                                    !- Visible Absorptance

OS:Construction,
  {a90cbb08-8d42-40aa-8cd4-6faa05971fc7}, !- Handle
  ASHRAE 189.1-2009 ExtRoof Metal ClimateZone 2-5, !- Name
  ,                                       !- Surface Rendering Name
  {305b28ba-ae11-4e22-acf2-6f84c64b2d8a}, !- Layer 1
  {d170e077-f456-44a3-bced-3ee9c69380d3}; !- Layer 2

OS:StandardsInformation:Construction,
  {d0205276-55be-4611-98ca-0c2f63aea897}, !- Handle
  {a90cbb08-8d42-40aa-8cd4-6faa05971fc7}, !- Construction Name
  ExteriorRoof,                           !- Intended Surface Type
  Metal;                                  !- Standards Construction Type

OS:Material,
  {d170e077-f456-44a3-bced-3ee9c69380d3}, !- Handle
  Roof Insulation [22],                   !- Name
  MediumRough,                            !- Roughness
  0.2358,                                 !- Thickness {m}
  0.049,                                  !- Conductivity {W/m-K}
  265,                                    !- Density {kg/m3}
  836.800000000001,                       !- Specific Heat {J/kg-K}
  0.9,                                    !- Thermal Absorptance
  0.7,                                    !- Solar Absorptance
  0.7;                                    !- Visible Absorptance

OS:Construction,
  {258291f2-640d-47aa-90a7-206cdcc7a63d}, !- Handle
  ASHRAE 189.1-2009 ExtRoof Metal ClimateZone 6, !- Name
  ,                                       !- Surface Rendering Name
  {305b28ba-ae11-4e22-acf2-6f84c64b2d8a}, !- Layer 1
  {dfba4065-42e2-4e80-8cf1-645666d6a819}; !- Layer 2

OS:StandardsInformation:Construction,
  {4e90221a-b8ce-4318-966e-b90830f5c921}, !- Handle
  {258291f2-640d-47aa-90a7-206cdcc7a63d}, !- Construction Name
  ExteriorRoof,                           !- Intended Surface Type
  Metal;                                  !- Standards Construction Type

OS:Material,
  {dfba4065-42e2-4e80-8cf1-645666d6a819}, !- Handle
  Roof Insulation [25],                   !- Name
  MediumRough,                            !- Roughness
  0.263,                                  !- Thickness {m}
  0.049,                                  !- Conductivity {W/m-K}
  265,                                    !- Density {kg/m3}
  836.800000000001,                       !- Specific Heat {J/kg-K}
  0.9,                                    !- Thermal Absorptance
  0.7,                                    !- Solar Absorptance
  0.7;                                    !- Visible Absorptance

OS:Construction,
  {ac373f33-d833-4375-8050-244fd403caf9}, !- Handle
  ASHRAE 189.1-2009 ExtRoof Metal ClimateZone 7-8, !- Name
  ,                                       !- Surface Rendering Name
  {305b28ba-ae11-4e22-acf2-6f84c64b2d8a}, !- Layer 1
  {9ea9b1a6-7db2-4683-801e-e98fab4bd2f4}; !- Layer 2

OS:StandardsInformation:Construction,
  {2a65f5ff-1725-44c2-ac66-57e4c0a78b6b}, !- Handle
  {ac373f33-d833-4375-8050-244fd403caf9}, !- Construction Name
  ExteriorRoof,                           !- Intended Surface Type
  Metal;                                  !- Standards Construction Type

OS:Material,
  {9ea9b1a6-7db2-4683-801e-e98fab4bd2f4}, !- Handle
  Roof Insulation [27],                   !- Name
  MediumRough,                            !- Roughness
  0.297000000000001,                      !- Thickness {m}
  0.049,                                  !- Conductivity {W/m-K}
  265,                                    !- Density {kg/m3}
  836.800000000001,                       !- Specific Heat {J/kg-K}
  0.9,                                    !- Thermal Absorptance
  0.7,                                    !- Solar Absorptance
  0.7;                                    !- Visible Absorptance

OS:Construction,
  {ad355718-cf4c-4874-ae5c-02afd423ffb6}, !- Handle
  ASHRAE 189.1-2009 ExtWall Mass ClimateZone 1, !- Name
  ,                                       !- Surface Rendering Name
  {cb3b2de6-775e-41f0-8bff-48989b20e51c}, !- Layer 1
  {3c583b9e-d52e-4021-97ad-f55bc6c07299}, !- Layer 2
  {0b557f39-3cfa-4c43-95b2-b371989b0cf9}, !- Layer 3
  {3df43d44-3677-4087-a3b3-0ce5c1cc3a4b}; !- Layer 4

OS:StandardsInformation:Construction,
  {170979c2-40ec-4ad9-8dd9-626b0f4fba8d}, !- Handle
  {ad355718-cf4c-4874-ae5c-02afd423ffb6}, !- Construction Name
  ExteriorWall,                           !- Intended Surface Type
  Mass;                                   !- Standards Construction Type

OS:Material,
  {cb3b2de6-775e-41f0-8bff-48989b20e51c}, !- Handle
  1IN Stucco,                             !- Name
  Smooth,                                 !- Roughness
  0.0253,                                 !- Thickness {m}
  0.691799999999999,                      !- Conductivity {W/m-K}
  1858,                                   !- Density {kg/m3}
  836.999999999999,                       !- Specific Heat {J/kg-K}
  0.9,                                    !- Thermal Absorptance
  0.92,                                   !- Solar Absorptance
  0.92;                                   !- Visible Absorptance

OS:Material,
  {3c583b9e-d52e-4021-97ad-f55bc6c07299}, !- Handle
  8IN Concrete HW,                        !- Name
  MediumRough,                            !- Roughness
  0.2033,                                 !- Thickness {m}
  1.72959999999999,                       !- Conductivity {W/m-K}
  2242.99999999999,                       !- Density {kg/m3}
  836.999999999999,                       !- Specific Heat {J/kg-K}
  0.9,                                    !- Thermal Absorptance
  0.65,                                   !- Solar Absorptance
  0.65;                                   !- Visible Absorptance

OS:Material,
  {0b557f39-3cfa-4c43-95b2-b371989b0cf9}, !- Handle
  Wall Insulation [31],                   !- Name
  MediumRough,                            !- Roughness
  0.0337000000000001,                     !- Thickness {m}
  0.0432,                                 !- Conductivity {W/m-K}
  91,                                     !- Density {kg/m3}
  836.999999999999,                       !- Specific Heat {J/kg-K}
  0.9,                                    !- Thermal Absorptance
  0.5,                                    !- Solar Absorptance
  0.5;                                    !- Visible Absorptance

OS:Construction,
  {541824f2-8f8d-4d38-9c22-6da2b9ac1556}, !- Handle
  ASHRAE 189.1-2009 ExtWall Mass ClimateZone 2, !- Name
  ,                                       !- Surface Rendering Name
  {cb3b2de6-775e-41f0-8bff-48989b20e51c}, !- Layer 1
  {3c583b9e-d52e-4021-97ad-f55bc6c07299}, !- Layer 2
  {1a0ef90a-d041-4bcb-82c9-7c2bc367ea6b}, !- Layer 3
  {3df43d44-3677-4087-a3b3-0ce5c1cc3a4b}; !- Layer 4

OS:StandardsInformation:Construction,
  {dec66aa0-327c-4b58-9c0a-6afba67084d1}, !- Handle
  {541824f2-8f8d-4d38-9c22-6da2b9ac1556}, !- Construction Name
  ExteriorWall,                           !- Intended Surface Type
  Mass;                                   !- Standards Construction Type

OS:Material,
  {1a0ef90a-d041-4bcb-82c9-7c2bc367ea6b}, !- Handle
  Wall Insulation [35],                   !- Name
  MediumRough,                            !- Roughness
  0.0452,                                 !- Thickness {m}
  0.0432,                                 !- Conductivity {W/m-K}
  91,                                     !- Density {kg/m3}
  836.999999999999,                       !- Specific Heat {J/kg-K}
  0.9,                                    !- Thermal Absorptance
  0.5,                                    !- Solar Absorptance
  0.5;                                    !- Visible Absorptance

OS:Construction,
  {223acd15-ee66-4ddc-8adc-f12422128146}, !- Handle
  ASHRAE 189.1-2009 ExtWall Mass ClimateZone 3, !- Name
  ,                                       !- Surface Rendering Name
  {cb3b2de6-775e-41f0-8bff-48989b20e51c}, !- Layer 1
  {3c583b9e-d52e-4021-97ad-f55bc6c07299}, !- Layer 2
  {4e8c349c-a618-40e7-94d5-8025e7a85b9f}, !- Layer 3
  {3df43d44-3677-4087-a3b3-0ce5c1cc3a4b}; !- Layer 4

OS:StandardsInformation:Construction,
  {7c07c56e-2a6c-42fa-96e0-fcff485b8db7}, !- Handle
  {223acd15-ee66-4ddc-8adc-f12422128146}, !- Construction Name
  ExteriorWall,                           !- Intended Surface Type
  Mass;                                   !- Standards Construction Type

OS:Material,
  {4e8c349c-a618-40e7-94d5-8025e7a85b9f}, !- Handle
  Wall Insulation [36],                   !- Name
  MediumRough,                            !- Roughness
  0.0565999999999999,                     !- Thickness {m}
  0.0432,                                 !- Conductivity {W/m-K}
  91,                                     !- Density {kg/m3}
  836.999999999999,                       !- Specific Heat {J/kg-K}
  0.9,                                    !- Thermal Absorptance
  0.5,                                    !- Solar Absorptance
  0.5;                                    !- Visible Absorptance

OS:Construction,
  {b1a22005-70ac-4e97-83ca-658c8077960e}, !- Handle
  ASHRAE 189.1-2009 ExtWall Mass ClimateZone 4, !- Name
  ,                                       !- Surface Rendering Name
  {cb3b2de6-775e-41f0-8bff-48989b20e51c}, !- Layer 1
  {3c583b9e-d52e-4021-97ad-f55bc6c07299}, !- Layer 2
  {a02ac5df-6a33-454b-80a0-9d894c96128f}, !- Layer 3
  {3df43d44-3677-4087-a3b3-0ce5c1cc3a4b}; !- Layer 4

OS:StandardsInformation:Construction,
  {aa4b2f0e-1c6d-4fdc-9af6-48ad10e698be}, !- Handle
  {b1a22005-70ac-4e97-83ca-658c8077960e}, !- Construction Name
  ExteriorWall,                           !- Intended Surface Type
  Mass;                                   !- Standards Construction Type

OS:Material,
  {a02ac5df-6a33-454b-80a0-9d894c96128f}, !- Handle
  Wall Insulation [37],                   !- Name
  MediumRough,                            !- Roughness
  0.0680999999999999,                     !- Thickness {m}
  0.0432,                                 !- Conductivity {W/m-K}
  91,                                     !- Density {kg/m3}
  836.999999999999,                       !- Specific Heat {J/kg-K}
  0.9,                                    !- Thermal Absorptance
  0.5,                                    !- Solar Absorptance
  0.5;                                    !- Visible Absorptance

OS:Construction,
  {899a47cf-10e5-4a5a-bb7f-25e02431fcec}, !- Handle
  ASHRAE 189.1-2009 ExtWall Mass ClimateZone 5, !- Name
  ,                                       !- Surface Rendering Name
  {cb3b2de6-775e-41f0-8bff-48989b20e51c}, !- Layer 1
  {3c583b9e-d52e-4021-97ad-f55bc6c07299}, !- Layer 2
  {35a36851-ce01-4942-84ec-77252173fc6a}, !- Layer 3
  {3df43d44-3677-4087-a3b3-0ce5c1cc3a4b}; !- Layer 4

OS:StandardsInformation:Construction,
  {849b8951-5a51-4215-adb0-6268c4672656}, !- Handle
  {899a47cf-10e5-4a5a-bb7f-25e02431fcec}, !- Construction Name
  ExteriorWall,                           !- Intended Surface Type
  Mass;                                   !- Standards Construction Type

OS:Material,
  {35a36851-ce01-4942-84ec-77252173fc6a}, !- Handle
  Wall Insulation [40],                   !- Name
  MediumRough,                            !- Roughness
  0.0793999999999999,                     !- Thickness {m}
  0.0432,                                 !- Conductivity {W/m-K}
  91,                                     !- Density {kg/m3}
  836.999999999999,                       !- Specific Heat {J/kg-K}
  0.9,                                    !- Thermal Absorptance
  0.5,                                    !- Solar Absorptance
  0.5;                                    !- Visible Absorptance

OS:Construction,
  {3365e1ca-ac5c-4339-ad72-90205bcb26c0}, !- Handle
  ASHRAE 189.1-2009 ExtWall Mass ClimateZone 6, !- Name
  ,                                       !- Surface Rendering Name
  {cb3b2de6-775e-41f0-8bff-48989b20e51c}, !- Layer 1
  {3c583b9e-d52e-4021-97ad-f55bc6c07299}, !- Layer 2
  {9f693df2-4503-4580-8ded-5ad4eece7a41}, !- Layer 3
  {3df43d44-3677-4087-a3b3-0ce5c1cc3a4b}; !- Layer 4

OS:StandardsInformation:Construction,
  {8a59b1eb-7ef2-4bb1-a529-5bd88608113c}, !- Handle
  {3365e1ca-ac5c-4339-ad72-90205bcb26c0}, !- Construction Name
  ExteriorWall,                           !- Intended Surface Type
  Mass;                                   !- Standards Construction Type

OS:Material,
  {9f693df2-4503-4580-8ded-5ad4eece7a41}, !- Handle
  Wall Insulation [42],                   !- Name
  MediumRough,                            !- Roughness
  0.0913999999999999,                     !- Thickness {m}
  0.0432,                                 !- Conductivity {W/m-K}
  91,                                     !- Density {kg/m3}
  836.999999999999,                       !- Specific Heat {J/kg-K}
  0.9,                                    !- Thermal Absorptance
  0.5,                                    !- Solar Absorptance
  0.5;                                    !- Visible Absorptance

OS:Construction,
  {f95fc525-acd6-484b-9344-fef55a639128}, !- Handle
  ASHRAE 189.1-2009 ExtWall Mass ClimateZone 7-8, !- Name
  ,                                       !- Surface Rendering Name
  {cb3b2de6-775e-41f0-8bff-48989b20e51c}, !- Layer 1
  {3c583b9e-d52e-4021-97ad-f55bc6c07299}, !- Layer 2
  {3dd2e3d1-e484-462f-ad0e-2fdd491e18d5}, !- Layer 3
  {3df43d44-3677-4087-a3b3-0ce5c1cc3a4b}; !- Layer 4

OS:StandardsInformation:Construction,
  {467c74a6-7fd6-4419-9e1f-69fdf780cc91}, !- Handle
  {f95fc525-acd6-484b-9344-fef55a639128}, !- Construction Name
  ExteriorWall,                           !- Intended Surface Type
  Mass;                                   !- Standards Construction Type

OS:Material,
  {3dd2e3d1-e484-462f-ad0e-2fdd491e18d5}, !- Handle
  Wall Insulation [44],                   !- Name
  MediumRough,                            !- Roughness
  0.1104,                                 !- Thickness {m}
  0.0432,                                 !- Conductivity {W/m-K}
  91,                                     !- Density {kg/m3}
  836.999999999999,                       !- Specific Heat {J/kg-K}
  0.9,                                    !- Thermal Absorptance
  0.5,                                    !- Solar Absorptance
  0.5;                                    !- Visible Absorptance

OS:Construction,
  {df61944c-8175-4eed-9b8e-4a764d943bf8}, !- Handle
  ASHRAE 189.1-2009 ExtWall Mass ClimateZone alt-res 1, !- Name
  ,                                       !- Surface Rendering Name
  {cb3b2de6-775e-41f0-8bff-48989b20e51c}, !- Layer 1
  {3c583b9e-d52e-4021-97ad-f55bc6c07299}, !- Layer 2
  {1a0ef90a-d041-4bcb-82c9-7c2bc367ea6b}, !- Layer 3
  {3df43d44-3677-4087-a3b3-0ce5c1cc3a4b}; !- Layer 4

OS:StandardsInformation:Construction,
  {6a7b9837-ed42-4e13-84df-1b57e3c4170f}, !- Handle
  {df61944c-8175-4eed-9b8e-4a764d943bf8}, !- Construction Name
  ExteriorWall,                           !- Intended Surface Type
  Mass;                                   !- Standards Construction Type

OS:Construction,
  {424c845a-2a08-4a61-a955-37563561f39f}, !- Handle
  ASHRAE 189.1-2009 ExtWall Mass ClimateZone alt-res 2, !- Name
  ,                                       !- Surface Rendering Name
  {cb3b2de6-775e-41f0-8bff-48989b20e51c}, !- Layer 1
  {3c583b9e-d52e-4021-97ad-f55bc6c07299}, !- Layer 2
  {4e8c349c-a618-40e7-94d5-8025e7a85b9f}, !- Layer 3
  {3df43d44-3677-4087-a3b3-0ce5c1cc3a4b}; !- Layer 4

OS:StandardsInformation:Construction,
  {dcb0ddf3-a2e9-43b4-ab42-83193cacd8c2}, !- Handle
  {424c845a-2a08-4a61-a955-37563561f39f}, !- Construction Name
  ExteriorWall,                           !- Intended Surface Type
  Mass;                                   !- Standards Construction Type

OS:Construction,
  {40d8d74b-12c0-4ed0-8c98-d7c583182974}, !- Handle
  ASHRAE 189.1-2009 ExtWall Mass ClimateZone alt-res 3, !- Name
  ,                                       !- Surface Rendering Name
  {cb3b2de6-775e-41f0-8bff-48989b20e51c}, !- Layer 1
  {3c583b9e-d52e-4021-97ad-f55bc6c07299}, !- Layer 2
  {a02ac5df-6a33-454b-80a0-9d894c96128f}, !- Layer 3
  {3df43d44-3677-4087-a3b3-0ce5c1cc3a4b}; !- Layer 4

OS:StandardsInformation:Construction,
  {1e559e54-b713-469d-933e-b5783ea163ed}, !- Handle
  {40d8d74b-12c0-4ed0-8c98-d7c583182974}, !- Construction Name
  ExteriorWall,                           !- Intended Surface Type
  Mass;                                   !- Standards Construction Type

OS:Construction,
  {060558be-47f9-4e61-83e7-7a4316d05e0f}, !- Handle
  ASHRAE 189.1-2009 ExtWall Mass ClimateZone alt-res 4, !- Name
  ,                                       !- Surface Rendering Name
  {cb3b2de6-775e-41f0-8bff-48989b20e51c}, !- Layer 1
  {3c583b9e-d52e-4021-97ad-f55bc6c07299}, !- Layer 2
  {35a36851-ce01-4942-84ec-77252173fc6a}, !- Layer 3
  {3df43d44-3677-4087-a3b3-0ce5c1cc3a4b}; !- Layer 4

OS:StandardsInformation:Construction,
  {8c17d8f8-4162-4b8b-b3c6-2987ac0077a0}, !- Handle
  {060558be-47f9-4e61-83e7-7a4316d05e0f}, !- Construction Name
  ExteriorWall,                           !- Intended Surface Type
  Mass;                                   !- Standards Construction Type

OS:Construction,
  {7e633f72-63d2-411f-be6a-e06184f90c5e}, !- Handle
  ASHRAE 189.1-2009 ExtWall Mass ClimateZone alt-res 5, !- Name
  ,                                       !- Surface Rendering Name
  {cb3b2de6-775e-41f0-8bff-48989b20e51c}, !- Layer 1
  {3c583b9e-d52e-4021-97ad-f55bc6c07299}, !- Layer 2
  {9f693df2-4503-4580-8ded-5ad4eece7a41}, !- Layer 3
  {3df43d44-3677-4087-a3b3-0ce5c1cc3a4b}; !- Layer 4

OS:StandardsInformation:Construction,
  {237e1782-b634-4c75-884c-177d6f41406d}, !- Handle
  {7e633f72-63d2-411f-be6a-e06184f90c5e}, !- Construction Name
  ExteriorWall,                           !- Intended Surface Type
  Mass;                                   !- Standards Construction Type

OS:Construction,
  {59de674b-4712-4b4c-90eb-559e3accd5d8}, !- Handle
  ASHRAE 189.1-2009 ExtWall Mass ClimateZone alt-res 6, !- Name
  ,                                       !- Surface Rendering Name
  {cb3b2de6-775e-41f0-8bff-48989b20e51c}, !- Layer 1
  {3c583b9e-d52e-4021-97ad-f55bc6c07299}, !- Layer 2
  {3dd2e3d1-e484-462f-ad0e-2fdd491e18d5}, !- Layer 3
  {3df43d44-3677-4087-a3b3-0ce5c1cc3a4b}; !- Layer 4

OS:StandardsInformation:Construction,
  {684e5af3-15a5-427b-a288-5b9830650fdc}, !- Handle
  {59de674b-4712-4b4c-90eb-559e3accd5d8}, !- Construction Name
  ExteriorWall,                           !- Intended Surface Type
  Mass;                                   !- Standards Construction Type

OS:Construction,
  {3e5bdcc0-c515-4853-b825-58f491b09449}, !- Handle
  ASHRAE 189.1-2009 ExtWall Mass ClimateZone alt-res 7, !- Name
  ,                                       !- Surface Rendering Name
  {cb3b2de6-775e-41f0-8bff-48989b20e51c}, !- Layer 1
  {3c583b9e-d52e-4021-97ad-f55bc6c07299}, !- Layer 2
  {3dd2e3d1-e484-462f-ad0e-2fdd491e18d5}, !- Layer 3
  {3df43d44-3677-4087-a3b3-0ce5c1cc3a4b}; !- Layer 4

OS:StandardsInformation:Construction,
  {1ad799a1-e0c0-4f04-accc-15c5b42dbb49}, !- Handle
  {3e5bdcc0-c515-4853-b825-58f491b09449}, !- Construction Name
  ExteriorWall,                           !- Intended Surface Type
  Mass;                                   !- Standards Construction Type

OS:Construction,
  {7700599b-0b6a-4867-8532-cce451e108f1}, !- Handle
  ASHRAE 189.1-2009 ExtWall Mass ClimateZone alt-res 8, !- Name