
OS:Version,
  {da6f59f4-491a-4e27-905b-96fedd8d777c}, !- Handle
  0.11.5;                                 !- Version Identifier

OS:Schedule:Constant,
  {ed318b87-2921-4996-b408-a4cd4e7b4c55}, !- Handle
  Always On Discrete,                     !- Name
  {ad30e28a-8367-4f6a-8710-2497f18832c1}, !- Schedule Type Limits Name
  1;                                      !- Value

OS:ScheduleTypeLimits,
  {ad30e28a-8367-4f6a-8710-2497f18832c1}, !- Handle
  Always On Discrete Limits,              !- Name
  0,                                      !- Lower Limit Value {BasedOnField A4}
  1,                                      !- Upper Limit Value {BasedOnField A4}
  Discrete,                               !- Numeric Type
  Availability;                           !- Unit Type

OS:Building,
  {dd9093fb-93bb-41b4-811c-e467a7b2cc41}, ! Handle
  Medium Office,                          ! Name
  ,                                       ! Building Type
  -0,                                     ! North Axis
  ,                                       ! Nominal Floor to Floor Height
  {20c4ae60-3051-4a67-a3c9-d9d552a8b151}, ! Space Type Name
  {73d5a571-52bd-4a00-a7ce-658cc0a8448f}, ! Default Construction Set Name
  ;                                       ! Default Schedule Set Name

OS:Construction,
  {f2348363-e007-4b16-8475-b67dd070728c}, ! Handle
  000 AtticRoof ClimateZone 1-8,          ! Name
  {36cbd1e0-6c87-431e-958c-a0f96c483536}, ! Surface Rendering Name
  {edf2e432-da02-408a-838f-87cf9606070b}, ! Layer 1
  {c82133f9-d921-4552-8be8-55baea2963bf}; ! Layer 2

OS:Construction,
  {c0ccf8b3-e2e5-43f9-bdc7-885bd774334b}, ! Handle
  000 ExtSlabCarpet 4in ClimateZone 1-8,  ! Name
  {aa28bfc1-6ceb-419c-ae67-43684bf3d8fd}, ! Surface Rendering Name
  {db7487b3-a9ec-4e5a-88ee-1dcc9407cc15}, ! Layer 1
  {25a29694-d54f-47f5-81b1-345080f71d1f}; ! Layer 2

OS:Construction,
  {76eff45c-6f46-4c8f-afe6-80774c524e75}, ! Handle
  000 ExtSlabCarpet 8in ClimateZone 1-8,  ! Name
  {438895f7-a69d-44a2-9162-8c4a1b5bc2a1}, ! Surface Rendering Name
  {62f6f6ce-caac-4c51-a02c-67278f4c41a9}, ! Layer 1
  {25a29694-d54f-47f5-81b1-345080f71d1f}; ! Layer 2

OS:Construction,
  {ddcfe9fc-1df4-4541-b449-674d2df607ee}, ! Handle
  000 ExtSlab 4in ClimateZone 1-8,        ! Name
  {35971f5b-e8a3-44f9-b7a2-10d896adefbd}, ! Surface Rendering Name
  {db7487b3-a9ec-4e5a-88ee-1dcc9407cc15}; ! Layer 1

OS:Construction,
  {1f2b52fa-01f2-4a65-b340-b5f4f4cd43d0}, ! Handle
  000 ExtSlab 8in ClimateZone 1-8,        ! Name
  {4d554396-75bc-4ba7-9b01-4a02d6d02d45}, ! Surface Rendering Name
  {62f6f6ce-caac-4c51-a02c-67278f4c41a9}; ! Layer 1

OS:Construction,
  {61974bad-776e-4d3a-b874-5459ce169a0c}, ! Handle
  000 Exterior Door,                      ! Name
  {69361c9d-97fe-4f02-9cfa-ead96a7c0850}, ! Surface Rendering Name
  {7522d077-c0d8-4cef-b2ab-696891bd2049}, ! Layer 1
  {24f066d5-5c0e-4018-a50e-22c890b4b409}; ! Layer 2

OS:Construction,
  {ec0b3f5b-bf08-464d-ad0e-e4a6af2bc461}, ! Handle
  000 Exterior Floor,                     ! Name
  {695e464b-06ba-4f46-b5ff-9d28a3571c68}, ! Surface Rendering Name
  {940da894-b97c-4164-a93a-81215ffadec5}, ! Layer 1
  {5b47d1cd-d757-47cd-a7d3-a26217c089f9}; ! Layer 2

OS:Construction,
  {33626930-46dd-498f-84a5-1dcd58488398}, ! Handle
  000 Exterior Roof,                      ! Name
  {8ba1e238-0781-4332-aa63-8d3e57f55516}, ! Surface Rendering Name
  {ed7ea0b2-212e-4d9c-adfa-9f1b4bcafe48}, ! Layer 1
  {ec04666f-6909-4ba7-92c3-81e48573dea3}, ! Layer 2
  {9fc9aa4b-690e-435c-b019-c6c31e6ea7fd}; ! Layer 3

OS:Construction,
  {c5495461-a6cd-4fc2-a455-100c14dd6c10}, ! Handle
  000 Exterior Wall,                      ! Name
  {81717ef3-83f5-4e91-a19f-17bd157f6642}, ! Surface Rendering Name
  {581187fb-03f8-4d00-905a-0f617075d3cc}, ! Layer 1
  {5b47d1cd-d757-47cd-a7d3-a26217c089f9}, ! Layer 2
  {940da894-b97c-4164-a93a-81215ffadec5}, ! Layer 3
  {a938df38-ba03-44eb-b8b9-636887f3ff2a}, ! Layer 4
  {43883e9a-0bd5-4e54-85d3-a22b82218bd7}; ! Layer 5

OS:Construction,
  {464dbf80-f414-45e9-86b4-77c75e5c39e4}, ! Handle
  000 Exterior Window,                    ! Name
  {dd0ca50a-c428-4e0f-b09f-bccf2f9529f9}, ! Surface Rendering Name
  {3fe014ef-953d-453d-90c6-9eee5d6c8503}, ! Layer 1
  {1b5521ad-7277-4e07-872f-9cd565cd16f8}, ! Layer 2
  {3fe014ef-953d-453d-90c6-9eee5d6c8503}; ! Layer 3

OS:Construction,
  {3cd27e22-eb3d-43ef-abb7-1aeba84aca58}, ! Handle
  000 Interior Ceiling,                   ! Name
  {fa1f364b-4e18-4a7e-a1d4-eef8eff6fbb6}, ! Surface Rendering Name
  {ed7ea0b2-212e-4d9c-adfa-9f1b4bcafe48}, ! Layer 1
  {ec04666f-6909-4ba7-92c3-81e48573dea3}, ! Layer 2
  {9fc9aa4b-690e-435c-b019-c6c31e6ea7fd}; ! Layer 3

OS:Construction,
  {be59b11e-3ec7-4433-93e9-b68cc81c4656}, ! Handle
  000 Interior Door,                      ! Name
  {96c9ed06-1eb1-4925-aa34-688faf84c263}, ! Surface Rendering Name
  {cd66e1c4-21fa-44e7-92e2-36797a800bf9}; ! Layer 1

OS:Construction,
  {a6b22115-d4bd-4599-b9cf-bb4da648025c}, ! Handle
  000 Interior Floor,                     ! Name
  {b4457141-3e11-455f-9a60-39def86d6b30}, ! Surface Rendering Name
  {9fc9aa4b-690e-435c-b019-c6c31e6ea7fd}, ! Layer 1
  {ec04666f-6909-4ba7-92c3-81e48573dea3}, ! Layer 2
  {ed7ea0b2-212e-4d9c-adfa-9f1b4bcafe48}; ! Layer 3

OS:Construction,
  {6f65ba3f-c9f8-4972-bc59-43f0af9f1611}, ! Handle
  000 Interior Partition,                 ! Name
  {d7cf9522-6bb5-4957-9842-18296bfdaf9e}, ! Surface Rendering Name
  {cd66e1c4-21fa-44e7-92e2-36797a800bf9}; ! Layer 1

OS:Construction,
  {59a125ed-23f3-43db-b112-e8bc84104ede}, ! Handle
  000 Interior Wall,                      ! Name
  {3c720690-1794-4ecb-82f9-5644f64e8645}, ! Surface Rendering Name
  {43883e9a-0bd5-4e54-85d3-a22b82218bd7}, ! Layer 1
  {a938df38-ba03-44eb-b8b9-636887f3ff2a}, ! Layer 2
  {43883e9a-0bd5-4e54-85d3-a22b82218bd7}; ! Layer 3

OS:Construction,
  {332baa12-7849-4317-9c94-b18e02f817aa}, ! Handle
  000 Interior Window,                    ! Name
  {e1388a42-b6ff-49ec-80cd-a4808da1a840}, ! Surface Rendering Name
  {3fe014ef-953d-453d-90c6-9eee5d6c8503}; ! Layer 1

OS:Construction,
  {2b02ab78-b8e0-4323-a260-ce01bfdc0bf0}, ! Handle
  ASHRAE 189.1-2009 AtticFloor ClimateZone 1-8, ! Name
  {c681e0d2-1dcb-4da5-bcf7-66b85d0e8059}, ! Surface Rendering Name
  {21b65069-9cea-4ea8-8812-8e375dd9164f}, ! Layer 1
  {a73e97a1-80b5-4b57-bfc9-beb5a7706b69}, ! Layer 2
  {21b65069-9cea-4ea8-8812-8e375dd9164f}; ! Layer 3

OS:Construction,
  {66f58183-4b17-47b5-9b82-e74c81f74c79}, ! Handle
  ASHRAE 189.1-2009 ExtRoof IEAD ClimateZone 1, ! Name
  {a90c962c-439d-4f29-904c-c3eea33217c7}, ! Surface Rendering Name
  {edf2e432-da02-408a-838f-87cf9606070b}, ! Layer 1
  {153ec918-a24d-44b8-9a52-67fccd7e07d9}, ! Layer 2
  {c82133f9-d921-4552-8be8-55baea2963bf}; ! Layer 3

OS:Construction,
  {046c3090-8ea7-4078-9881-9500a58866ed}, ! Handle
  ASHRAE 189.1-2009 ExtRoof IEAD ClimateZone 2-5, ! Name
  {435a648d-431e-4b60-8a06-5123a52ad8bc}, ! Surface Rendering Name
  {edf2e432-da02-408a-838f-87cf9606070b}, ! Layer 1
  {5892894d-d76f-49ba-9fe4-ff6b9ef466ea}, ! Layer 2
  {c82133f9-d921-4552-8be8-55baea2963bf}; ! Layer 3

OS:Construction,
  {72097cf5-f787-4320-a314-ad2992442b4e}, ! Handle
  ASHRAE 189.1-2009 ExtRoof IEAD ClimateZone 6, ! Name
  {5b8fa88d-f9e1-42f5-985d-ee381d6b347e}, ! Surface Rendering Name
  {edf2e432-da02-408a-838f-87cf9606070b}, ! Layer 1
  {09d64825-abe3-4919-88d6-6be8e0850044}, ! Layer 2
  {c82133f9-d921-4552-8be8-55baea2963bf}; ! Layer 3

OS:Construction,
  {a81a7213-ef82-40c5-a2dc-e17e662060d0}, ! Handle
  ASHRAE 189.1-2009 ExtRoof IEAD ClimateZone 7-8, ! Name
  {faf44aab-e715-4832-b36d-4ed37d8fbbb7}, ! Surface Rendering Name
  {edf2e432-da02-408a-838f-87cf9606070b}, ! Layer 1
  {ea9c46d6-7785-4a73-b917-bae00386c672}, ! Layer 2
  {c82133f9-d921-4552-8be8-55baea2963bf}; ! Layer 3

OS:Construction,
  {5680b2ee-ee7c-437a-a131-831d9bba8c0e}, ! Handle
  ASHRAE 189.1-2009 ExtRoof Metal ClimateZone 1, ! Name
  {e9ff2ba8-f53f-43c6-bf9b-973e9d860af6}, ! Surface Rendering Name
  {8f8d4a1a-5612-422f-936d-651a7927a7d5}, ! Layer 1
  {75ce473e-76e3-43ff-98ed-211db6e76f61}; ! Layer 2

OS:Construction,
  {74a49d81-81a9-4c1d-bc79-d3a4c376a89c}, ! Handle
  ASHRAE 189.1-2009 ExtRoof Metal ClimateZone 2-5, ! Name
  {2416afb4-4fe3-4978-b622-00084fee2f41}, ! Surface Rendering Name
  {8f8d4a1a-5612-422f-936d-651a7927a7d5}, ! Layer 1
  {3b53e18d-1060-44ca-bf6a-cf12f8b6f8da}; ! Layer 2

OS:Construction,
  {254a959e-8494-4236-b6e4-4604e0361f2f}, ! Handle
  ASHRAE 189.1-2009 ExtRoof Metal ClimateZone 6, ! Name
  {c10469a2-ec0f-4deb-89b8-ee49b785915c}, ! Surface Rendering Name
  {8f8d4a1a-5612-422f-936d-651a7927a7d5}, ! Layer 1
  {440affd9-4aa9-431f-b0bd-e8e694ccb83b}; ! Layer 2

OS:Construction,
  {71571c06-0724-4e3f-924e-c450067ab1a8}, ! Handle
  ASHRAE 189.1-2009 ExtRoof Metal ClimateZone 7-8, ! Name
  {0d77e08d-15a3-40af-aff9-26ed40e7c3c9}, ! Surface Rendering Name
  {8f8d4a1a-5612-422f-936d-651a7927a7d5}, ! Layer 1
  {4b78477d-8fe2-43dc-810c-168dcc81f075}; ! Layer 2

OS:Construction,
  {f808d742-218e-4475-8608-aaf3341f13c7}, ! Handle
  ASHRAE 189.1-2009 ExtWall Mass ClimateZone 1, ! Name
  {6df4bfa7-6dbe-480f-b1e3-92d834bda284}, ! Surface Rendering Name
  {48b722bd-ad67-4020-8155-e40aaddecc5a}, ! Layer 1
  {f8d3e910-7d23-4a5b-8594-a7df039072de}, ! Layer 2
  {d31af87a-9353-43a6-bd95-d1e9dc7e64be}, ! Layer 3
  {21b65069-9cea-4ea8-8812-8e375dd9164f}; ! Layer 4

OS:Construction,
  {7bd2fce2-9b1e-4f1e-be47-ccc48898f834}, ! Handle
  ASHRAE 189.1-2009 ExtWall Mass ClimateZone 2, ! Name
  {067a1db5-ca31-4bb1-89c5-797e08b457af}, ! Surface Rendering Name
  {48b722bd-ad67-4020-8155-e40aaddecc5a}, ! Layer 1
  {f8d3e910-7d23-4a5b-8594-a7df039072de}, ! Layer 2
  {39ba1609-49b5-4a88-bbb5-50a40e558b8b}, ! Layer 3
  {21b65069-9cea-4ea8-8812-8e375dd9164f}; ! Layer 4

OS:Construction,
  {650accb0-26a7-4010-a7e3-81542bd729bf}, ! Handle
  ASHRAE 189.1-2009 ExtWall Mass ClimateZone 3, ! Name
  {475d4417-95f3-4179-abf6-fe1662528a9c}, ! Surface Rendering Name
  {48b722bd-ad67-4020-8155-e40aaddecc5a}, ! Layer 1
  {f8d3e910-7d23-4a5b-8594-a7df039072de}, ! Layer 2
  {cd4edac2-49e1-44f1-a5e1-bc912d2b5b33}, ! Layer 3
  {21b65069-9cea-4ea8-8812-8e375dd9164f}; ! Layer 4

OS:Construction,
  {e9f80d97-cce3-4e0b-9413-6affb6e3a771}, ! Handle
  ASHRAE 189.1-2009 ExtWall Mass ClimateZone 4, ! Name
  {3b394717-11e5-4ce7-b26d-a1c181da32a4}, ! Surface Rendering Name
  {48b722bd-ad67-4020-8155-e40aaddecc5a}, ! Layer 1
  {f8d3e910-7d23-4a5b-8594-a7df039072de}, ! Layer 2
  {2dcb805d-52e8-40e2-bb0a-31cccf47883c}, ! Layer 3
  {21b65069-9cea-4ea8-8812-8e375dd9164f}; ! Layer 4

OS:Construction,
  {097a0d91-1a53-4f2a-8444-a1e240242aa6}, ! Handle
  ASHRAE 189.1-2009 ExtWall Mass ClimateZone 5, ! Name
  {6efb4d35-32b6-4585-88df-d3e3cb8c1047}, ! Surface Rendering Name
  {48b722bd-ad67-4020-8155-e40aaddecc5a}, ! Layer 1
  {f8d3e910-7d23-4a5b-8594-a7df039072de}, ! Layer 2
  {dd8606a7-baa7-4c76-a180-a8a057643e99}, ! Layer 3
  {21b65069-9cea-4ea8-8812-8e375dd9164f}; ! Layer 4

OS:Construction,
  {87d8bd39-f5a4-4333-b0ef-fd73e7a26348}, ! Handle
  ASHRAE 189.1-2009 ExtWall Mass ClimateZone 6, ! Name
  {cb6d57f5-777a-456e-a528-21fd503532d3}, ! Surface Rendering Name
  {48b722bd-ad67-4020-8155-e40aaddecc5a}, ! Layer 1
  {f8d3e910-7d23-4a5b-8594-a7df039072de}, ! Layer 2
  {4944058c-c411-4c28-b785-a36ba39ce40b}, ! Layer 3
  {21b65069-9cea-4ea8-8812-8e375dd9164f}; ! Layer 4

OS:Construction,
  {80a95f00-c1bf-4f04-93d0-93c2f2abc94c}, ! Handle
  ASHRAE 189.1-2009 ExtWall Mass ClimateZone 7-8, ! Name
  {f065ac9e-dd1f-43dd-bb89-a19b1fb1895d}, ! Surface Rendering Name
  {48b722bd-ad67-4020-8155-e40aaddecc5a}, ! Layer 1
  {f8d3e910-7d23-4a5b-8594-a7df039072de}, ! Layer 2
  {da0c0d97-292f-4cb9-bd74-15e7c50ac1cb}, ! Layer 3
  {21b65069-9cea-4ea8-8812-8e375dd9164f}; ! Layer 4

OS:Construction,
  {8081cf21-285a-46f9-ac76-81f828094055}, ! Handle
  ASHRAE 189.1-2009 ExtWall Mass ClimateZone alt-res 1, ! Name
  {74220978-ff35-4491-a04e-c904178a738b}, ! Surface Rendering Name
  {48b722bd-ad67-4020-8155-e40aaddecc5a}, ! Layer 1
  {f8d3e910-7d23-4a5b-8594-a7df039072de}, ! Layer 2
  {39ba1609-49b5-4a88-bbb5-50a40e558b8b}, ! Layer 3
  {21b65069-9cea-4ea8-8812-8e375dd9164f}; ! Layer 4

OS:Construction,
  {9f7a2975-e82f-4da8-b1e7-c41ca06dd91f}, ! Handle
  ASHRAE 189.1-2009 ExtWall Mass ClimateZone alt-res 2, ! Name
  {ca8404f5-dc56-4c74-9659-52c04885ac6f}, ! Surface Rendering Name
  {48b722bd-ad67-4020-8155-e40aaddecc5a}, ! Layer 1
  {f8d3e910-7d23-4a5b-8594-a7df039072de}, ! Layer 2
  {cd4edac2-49e1-44f1-a5e1-bc912d2b5b33}, ! Layer 3
  {21b65069-9cea-4ea8-8812-8e375dd9164f}; ! Layer 4

OS:Construction,
  {ecf01dec-6602-4b38-9da6-e903d8263af9}, ! Handle
  ASHRAE 189.1-2009 ExtWall Mass ClimateZone alt-res 3, ! Name
  {ab596808-7dc7-423f-bc1f-cf3461be5c1b}, ! Surface Rendering Name
  {48b722bd-ad67-4020-8155-e40aaddecc5a}, ! Layer 1
  {f8d3e910-7d23-4a5b-8594-a7df039072de}, ! Layer 2
  {2dcb805d-52e8-40e2-bb0a-31cccf47883c}, ! Layer 3
  {21b65069-9cea-4ea8-8812-8e375dd9164f}; ! Layer 4

OS:Construction,
  {115672d3-440d-4427-b9f9-9d4a348212dd}, ! Handle
  ASHRAE 189.1-2009 ExtWall Mass ClimateZone alt-res 4, ! Name
  {bfce3a4b-0946-495d-b400-e7a8b633735c}, ! Surface Rendering Name
  {48b722bd-ad67-4020-8155-e40aaddecc5a}, ! Layer 1
  {f8d3e910-7d23-4a5b-8594-a7df039072de}, ! Layer 2
  {dd8606a7-baa7-4c76-a180-a8a057643e99}, ! Layer 3
  {21b65069-9cea-4ea8-8812-8e375dd9164f}; ! Layer 4

OS:Construction,
  {3d5d83bb-6107-4213-817a-bbd2a8b478bd}, ! Handle
  ASHRAE 189.1-2009 ExtWall Mass ClimateZone alt-res 5, ! Name
  {91083fba-45f3-4c35-a193-8f75cd5efa2e}, ! Surface Rendering Name
  {48b722bd-ad67-4020-8155-e40aaddecc5a}, ! Layer 1
  {f8d3e910-7d23-4a5b-8594-a7df039072de}, ! Layer 2
  {4944058c-c411-4c28-b785-a36ba39ce40b}, ! Layer 3
  {21b65069-9cea-4ea8-8812-8e375dd9164f}; ! Layer 4

OS:Construction,
  {11671eba-fc3f-4b00-85e9-8ec2381f02e6}, ! Handle
  ASHRAE 189.1-2009 ExtWall Mass ClimateZone alt-res 6, ! Name
  {4096ae4b-d4df-4bba-b4cd-27af1fa3a857}, ! Surface Rendering Name
  {48b722bd-ad67-4020-8155-e40aaddecc5a}, ! Layer 1
  {f8d3e910-7d23-4a5b-8594-a7df039072de}, ! Layer 2
  {da0c0d97-292f-4cb9-bd74-15e7c50ac1cb}, ! Layer 3
  {21b65069-9cea-4ea8-8812-8e375dd9164f}; ! Layer 4

OS:Construction,
  {e50a1d50-fb5e-472a-8e24-29ff51fa25e1}, ! Handle
  ASHRAE 189.1-2009 ExtWall Mass ClimateZone alt-res 7, ! Name
  {eff710c0-847c-4887-a293-08efca1afa5f}, ! Surface Rendering Name
  {48b722bd-ad67-4020-8155-e40aaddecc5a}, ! Layer 1
  {f8d3e910-7d23-4a5b-8594-a7df039072de}, ! Layer 2
  {da0c0d97-292f-4cb9-bd74-15e7c50ac1cb}, ! Layer 3
  {21b65069-9cea-4ea8-8812-8e375dd9164f}; ! Layer 4

OS:Construction,
  {9cd873eb-cdbe-4a14-8995-5cb2a3946899}, ! Handle
  ASHRAE 189.1-2009 ExtWall Mass ClimateZone alt-res 8, ! Name
  {543302d7-2ecb-48a7-b51f-4d5a480c72d6}, ! Surface Rendering Name
  {48b722bd-ad67-4020-8155-e40aaddecc5a}, ! Layer 1
  {f8d3e910-7d23-4a5b-8594-a7df039072de}, ! Layer 2
  {b91ad4bd-d2b0-4dc1-8374-c10f9ba8019b}, ! Layer 3
  {21b65069-9cea-4ea8-8812-8e375dd9164f}; ! Layer 4

OS:Construction,
  {b85782b1-b0c3-4aee-be40-8b14a56bf793}, ! Handle
  ASHRAE 189.1-2009 ExtWall Metal ClimateZone 1-3, ! Name
  {7eb48249-4c98-4553-b1f0-12376e7c8452}, ! Surface Rendering Name
  {07e776c9-c502-4bb2-912d-52204f7b0e21}, ! Layer 1
  {3ef9f50f-211e-4d9a-b7b4-fedd91093c94}, ! Layer 2
  {21b65069-9cea-4ea8-8812-8e375dd9164f}; ! Layer 3

OS:Construction,
  {9132328f-5b00-4378-9000-48929ab897c3}, ! Handle
  ASHRAE 189.1-2009 ExtWall Metal ClimateZone 4-8, ! Name
  {9951584a-c022-4c54-90d0-453626bc3c84}, ! Surface Rendering Name
  {07e776c9-c502-4bb2-912d-52204f7b0e21}, ! Layer 1
  {71c88e02-a091-4f1b-a7b0-9c8b9a0a184c}, ! Layer 2
  {21b65069-9cea-4ea8-8812-8e375dd9164f}; ! Layer 3

OS:Construction,
  {c4eaec59-9f46-4e5d-8555-8fe4a0f31314}, ! Handle
  ASHRAE 189.1-2009 ExtWall SteelFrame ClimateZone 1-3, ! Name
  {7fe15d3b-c507-44e6-a776-78e9629ce20f}, ! Surface Rendering Name
  {6e934ab2-1f42-4978-a97c-9f65c92b0c74}, ! Layer 1
  {fb810926-e982-4634-8428-996cb9fe8136}, ! Layer 2
  {21b65069-9cea-4ea8-8812-8e375dd9164f}; ! Layer 3

OS:Construction,
  {67d166a0-f567-4483-ab8e-8261f548c259}, ! Handle
  ASHRAE 189.1-2009 ExtWall SteelFrame ClimateZone 4-8, ! Name
  {75c632d1-bdea-4936-b9d0-7825bd1b3099}, ! Surface Rendering Name
  {6e934ab2-1f42-4978-a97c-9f65c92b0c74}, ! Layer 1
  {9957e58a-7182-4b65-ae8a-92cbf73ee0e0}, ! Layer 2
  {21b65069-9cea-4ea8-8812-8e375dd9164f}; ! Layer 3

OS:Construction,
  {c5478b73-8517-4fe6-9ea0-e8c2ed9dfadc}, ! Handle
  ASHRAE 189.1-2009 ExtWall WoodFrame ClimateZone 1-4, ! Name
  {667360f8-a14b-42e4-807d-e7c0286c12ab}, ! Surface Rendering Name
  {4d8098f7-4ee7-479e-bf47-20b7781c2c86}, ! Layer 1
  {f3d12e83-b18e-4271-a8b7-112c948c6b80}, ! Layer 2
  {21b65069-9cea-4ea8-8812-8e375dd9164f}; ! Layer 3

OS:Construction,
  {7039ddef-a2c6-40ad-828e-0e36bf917563}, ! Handle
  ASHRAE 189.1-2009 ExtWall WoodFrame ClimateZone 5, ! Name
  {ff25b048-0985-4552-b609-b0cd0a0ee92a}, ! Surface Rendering Name
  {4d8098f7-4ee7-479e-bf47-20b7781c2c86}, ! Layer 1
  {88df8ea3-649f-49e9-b59c-b355b33395c6}, ! Layer 2
  {21b65069-9cea-4ea8-8812-8e375dd9164f}; ! Layer 3

OS:Construction,
  {6fe3183d-e7a0-4e97-b906-fe516b2664ec}, ! Handle
  ASHRAE 189.1-2009 ExtWall WoodFrame ClimateZone 6-8, ! Name
  {9664fd38-36db-45ad-8778-1acebd282403}, ! Surface Rendering Name
  {4d8098f7-4ee7-479e-bf47-20b7781c2c86}, ! Layer 1
  {50146c9b-1e60-49b4-955a-6b9c63e94951}, ! Layer 2
  {21b65069-9cea-4ea8-8812-8e375dd9164f}; ! Layer 3

OS:Construction,
  {01589be5-7079-4ea2-916e-6e4ced977f94}, ! Handle
  ASHRAE 189.1-2009 ExtWindow ClimateZone 1, ! Name
  {c29d2cf0-fc07-4126-abc6-9e946c3775f5}, ! Surface Rendering Name
  {678eb492-0eeb-4291-b6e3-c45203223584}; ! Layer 1

OS:Construction,
  {f21cdbb5-dd67-43da-9d53-2dd6951330d5}, ! Handle
  ASHRAE 189.1-2009 ExtWindow ClimateZone 2, ! Name
  {731f1c84-24be-43ab-858b-2a7abc7023b0}, ! Surface Rendering Name
  {9f80030a-c1bc-4cf9-93d6-ebf5f0b05037}; ! Layer 1

OS:Construction,
  {fcd4963b-fcc8-4e62-a11d-0955553b900e}, ! Handle
  ASHRAE 189.1-2009 ExtWindow ClimateZone 3, ! Name
  {c184f0b1-587b-48fe-b10d-0d458898c373}, ! Surface Rendering Name
  {cdee6843-1988-4d05-a1bd-f1d2d4683c15}; ! Layer 1

OS:Construction,
  {b4b14524-589c-4825-8fb7-c2ccfc35d082}, ! Handle
  ASHRAE 189.1-2009 ExtWindow ClimateZone 4-5, ! Name
  {e2445425-25c9-41ab-8027-93b124ed6076}, ! Surface Rendering Name
  {0742455e-7f0a-40a2-96f3-5382538a9883}; ! Layer 1

OS:Construction,
  {b2d71c58-268b-47c0-8dec-28da3413ac31}, ! Handle
  ASHRAE 189.1-2009 ExtWindow ClimateZone 6, ! Name
  {ebce176a-1ddb-461a-b761-521803c3f5c1}, ! Surface Rendering Name
  {90ca0e82-3e7f-47c1-93d2-b69bcd90de7b}; ! Layer 1

OS:Construction,
  {ba5dd4ec-21e0-465f-96d8-8ae285fd76d9}, ! Handle
  ASHRAE 189.1-2009 ExtWindow ClimateZone 7-8, ! Name
  {80bbed9d-fed3-4856-bd73-0cfcefdccb60}, ! Surface Rendering Name
  {2c9831d9-b7f8-48a9-8f85-2964ac5179dd}; ! Layer 1

OS:Construction,
  {8aab426d-63df-4a86-b8b5-18f0c02c0e38}, ! Handle
  ASHRAE 189.1-2009 ExtWindow ClimateZone alt-res 4-5, ! Name
  {2f64624e-6704-4f04-a5c0-68bebbc31e21}, ! Surface Rendering Name
  {90ca0e82-3e7f-47c1-93d2-b69bcd90de7b}; ! Layer 1

OS:Construction,
  {887888e1-e879-4b1f-a7de-313982ffc707}, ! Handle
  ASHRAE 90.1-2004 AtticFloor ClimateZone 1-5, ! Name
  {8fc08ca8-f732-479c-89d5-607d3f8aeefa}, ! Surface Rendering Name
  {21b65069-9cea-4ea8-8812-8e375dd9164f}, ! Layer 1
  {9172748b-903c-4d3a-8eaa-3e5828a9a883}, ! Layer 2
  {21b65069-9cea-4ea8-8812-8e375dd9164f}; ! Layer 3

OS:Construction,
  {02b0e103-b372-45b1-a77d-6f95e7e885e1}, ! Handle
  ASHRAE 90.1-2004 AtticFloor ClimateZone 6-8, ! Name
  {deb5dfae-5eef-4cb7-8092-b579c0ea6902}, ! Surface Rendering Name
  {21b65069-9cea-4ea8-8812-8e375dd9164f}, ! Layer 1
  {827dc00a-c2e2-4d86-aefc-c8fa5e298129}, ! Layer 2
  {21b65069-9cea-4ea8-8812-8e375dd9164f}; ! Layer 3

OS:Construction,
  {fcac12b3-e2d9-40cb-bc09-1c9adce1fc06}, ! Handle
  ASHRAE 90.1-2004 ExtRoof IEAD ClimateZone 1-4, ! Name
  {16394459-047c-4241-adf0-07606f50cab6}, ! Surface Rendering Name
  {edf2e432-da02-408a-838f-87cf9606070b}, ! Layer 1
  {6631d208-d003-4b66-8106-a0330678cfd5}, ! Layer 2
  {c82133f9-d921-4552-8be8-55baea2963bf}; ! Layer 3

OS:Construction,
  {e119c03c-85b6-4bc4-b3ba-e868b80525be}, ! Handle
  ASHRAE 90.1-2004 ExtRoof IEAD ClimateZone 5-6, ! Name
  {8ffcdb7b-996e-460a-b854-ef8e2211821c}, ! Surface Rendering Name
  {edf2e432-da02-408a-838f-87cf9606070b}, ! Layer 1
  {a42d284d-b96a-44a8-8a03-7b5e0d15f931}, ! Layer 2
  {c82133f9-d921-4552-8be8-55baea2963bf}; ! Layer 3

OS:Construction,
  {eaef6d51-99ab-4302-9d2b-6b681fb6ba26}, ! Handle
  ASHRAE 90.1-2004 ExtRoof IEAD ClimateZone 7, ! Name
  {c76904a3-8bfc-48b0-bc51-570879641845}, ! Surface Rendering Name
  {edf2e432-da02-408a-838f-87cf9606070b}, ! Layer 1
  {6631d208-d003-4b66-8106-a0330678cfd5}, ! Layer 2
  {c82133f9-d921-4552-8be8-55baea2963bf}; ! Layer 3

OS:Construction,
  {58103822-8d53-4a3a-9066-69913f674306}, ! Handle
  ASHRAE 90.1-2004 ExtRoof IEAD ClimateZone 8, ! Name
  {c3301390-5686-4ef8-a21f-d8bd6c48e91d}, ! Surface Rendering Name
  {edf2e432-da02-408a-838f-87cf9606070b}, ! Layer 1
  {465565a7-9b29-4d4d-b6e2-85da59dc71d3}, ! Layer 2
  {c82133f9-d921-4552-8be8-55baea2963bf}; ! Layer 3

OS:Construction,
  {2dbf93ba-3cdd-47f2-9616-651ee420ad2a}, ! Handle
  ASHRAE 90.1-2004 ExtRoof Metal ClimateZone 1, ! Name
  {ecfad3d7-051c-4f18-a698-886ca745aa0b}, ! Surface Rendering Name
  {8f8d4a1a-5612-422f-936d-651a7927a7d5}; ! Layer 1

OS:Construction,
  {b7fcfb2e-30f2-45b0-9ca7-192850fbb594}, ! Handle
  ASHRAE 90.1-2004 ExtRoof Metal ClimateZone 2, ! Name
  {6de10657-e8a4-492f-8f7c-361aac97559f}, ! Surface Rendering Name
  {8f8d4a1a-5612-422f-936d-651a7927a7d5}, ! Layer 1
  {d71a3842-9459-4da0-a089-ae0f378c9c7d}; ! Layer 2

OS:Construction,
  {27265cbc-189b-45a5-b8ad-5f02b6441c4c}, ! Handle
  ASHRAE 90.1-2004 ExtRoof Metal ClimateZone 3-4, ! Name
  {c036cf75-e6be-4b74-81c4-bfe64b95cce9}, ! Surface Rendering Name
  {8f8d4a1a-5612-422f-936d-651a7927a7d5}, ! Layer 1
  {3402f649-c70d-4e46-b85c-0d6338bd7ef2}; ! Layer 2

OS:Construction,
  {535570f2-86cf-4ee3-a0a6-d03b7fa481d7}, ! Handle
  ASHRAE 90.1-2004 ExtRoof Metal ClimateZone 5-6, ! Name
  {da5d7ac2-9f34-49a4-8ac3-3c0702672558}, ! Surface Rendering Name
  {8f8d4a1a-5612-422f-936d-651a7927a7d5}, ! Layer 1
  {c6ae2ff8-cc22-4e51-a9fc-7c5a3d1ffb1d}; ! Layer 2

OS:Construction,
  {fa6dd5cd-d1d9-414b-9ed0-4faa27fdb1d2}, ! Handle
  ASHRAE 90.1-2004 ExtRoof Metal ClimateZone 7, ! Name
  {518a44ca-c973-4afa-8220-416b64c2c7be}, ! Surface Rendering Name
  {8f8d4a1a-5612-422f-936d-651a7927a7d5}, ! Layer 1
  {3402f649-c70d-4e46-b85c-0d6338bd7ef2}; ! Layer 2

OS:Construction,
  {fd40e64d-43cc-4325-a9c8-7a08d954368f}, ! Handle
  ASHRAE 90.1-2004 ExtRoof Metal ClimateZone 8, ! Name
  {5aa106ba-a591-4ca8-9784-6a2377eda26f}, ! Surface Rendering Name
  {8f8d4a1a-5612-422f-936d-651a7927a7d5}, ! Layer 1
  {0cc72827-2697-4e4a-9568-9d748a233755}; ! Layer 2

OS:Construction,
  {cb0561ec-ca99-4298-ad59-a435c32eacf8}, ! Handle
  ASHRAE 90.1-2004 ExtWall Mass ClimateZone 1-2, ! Name
  {f7f89c47-6f36-4791-a607-46d374d10e16}, ! Surface Rendering Name
  {48b722bd-ad67-4020-8155-e40aaddecc5a}, ! Layer 1
  {f92e8093-d48b-47cb-9e50-a8c6479310d6}, ! Layer 2
  {21b65069-9cea-4ea8-8812-8e375dd9164f}; ! Layer 3

OS:Construction,
  {f1939410-2d44-4c38-b64e-2a511746bf20}, ! Handle
  ASHRAE 90.1-2004 ExtWall Mass ClimateZone 3-4, ! Name
  {900df77b-8287-4e16-a872-83ff5972ae0a}, ! Surface Rendering Name
  {48b722bd-ad67-4020-8155-e40aaddecc5a}, ! Layer 1
  {f92e8093-d48b-47cb-9e50-a8c6479310d6}, ! Layer 2
  {6df29460-9332-427c-a768-08f3d09951fb}, ! Layer 3
  {21b65069-9cea-4ea8-8812-8e375dd9164f}; ! Layer 4

OS:Construction,
  {32eec25e-1ac7-42db-ac13-a4eb962cd3c0}, ! Handle
  ASHRAE 90.1-2004 ExtWall Mass ClimateZone 5, ! Name
  {764aa981-3641-4709-a354-4f43f492a690}, ! Surface Rendering Name
  {48b722bd-ad67-4020-8155-e40aaddecc5a}, ! Layer 1
  {f92e8093-d48b-47cb-9e50-a8c6479310d6}, ! Layer 2
  {a8390f2c-5adc-424f-b4b8-760195a63b1d}, ! Layer 3
  {21b65069-9cea-4ea8-8812-8e375dd9164f}; ! Layer 4

OS:Construction,
  {89994db9-9ffb-453a-83b4-a43987d8d4cb}, ! Handle
  ASHRAE 90.1-2004 ExtWall Mass ClimateZone 6, ! Name
  {1ac05d9f-1993-4ff0-8da3-75d2b603f00f}, ! Surface Rendering Name
  {48b722bd-ad67-4020-8155-e40aaddecc5a}, ! Layer 1
  {f92e8093-d48b-47cb-9e50-a8c6479310d6}, ! Layer 2
  {7e614eda-31b7-45ff-9207-eeb7ed626abc}, ! Layer 3
  {21b65069-9cea-4ea8-8812-8e375dd9164f}; ! Layer 4

OS:Construction,
  {46f60df5-b727-4fd7-9cdf-1088cf3efbaf}, ! Handle
  ASHRAE 90.1-2004 ExtWall Mass ClimateZone 7, ! Name
  {e3840e82-f313-487a-9cff-f87d399bd01f}, ! Surface Rendering Name
  {48b722bd-ad67-4020-8155-e40aaddecc5a}, ! Layer 1
  {f92e8093-d48b-47cb-9e50-a8c6479310d6}, ! Layer 2
  {df8c8826-bc08-4cd3-b6f3-2f7219cd102f}, ! Layer 3
  {21b65069-9cea-4ea8-8812-8e375dd9164f}; ! Layer 4

OS:Construction,
  {c129603a-f922-4766-89d2-6edab7350daf}, ! Handle
  ASHRAE 90.1-2004 ExtWall Mass ClimateZone 8, ! Name
  {d79848a9-bae3-4ec2-9343-fc576ef8900d}, ! Surface Rendering Name
  {48b722bd-ad67-4020-8155-e40aaddecc5a}, ! Layer 1
  {f92e8093-d48b-47cb-9e50-a8c6479310d6}, ! Layer 2
  {dc3b42a4-707f-429f-b4c5-d27dad31a53e}, ! Layer 3
  {21b65069-9cea-4ea8-8812-8e375dd9164f}; ! Layer 4

OS:Construction,
  {234a1bdc-c63b-4072-aaeb-c3e6f69bfb50}, ! Handle
  ASHRAE 90.1-2004 ExtWall Mass ClimateZone alt-res 1-2, ! Name
  {b5ffef53-af12-4457-9970-550d3edf176e}, ! Surface Rendering Name
  {48b722bd-ad67-4020-8155-e40aaddecc5a}, ! Layer 1
  {f92e8093-d48b-47cb-9e50-a8c6479310d6}, ! Layer 2
  {6df29460-9332-427c-a768-08f3d09951fb}, ! Layer 3
  {21b65069-9cea-4ea8-8812-8e375dd9164f}; ! Layer 4

OS:Construction,
  {deb65245-3721-45a1-8553-8132ff5e85f5}, ! Handle
  ASHRAE 90.1-2004 ExtWall Mass ClimateZone alt-res 3, ! Name
  {4fcc1234-7665-44e1-94c3-713305ced77e}, ! Surface Rendering Name
  {48b722bd-ad67-4020-8155-e40aaddecc5a}, ! Layer 1
  {f92e8093-d48b-47cb-9e50-a8c6479310d6}, ! Layer 2
  {a8390f2c-5adc-424f-b4b8-760195a63b1d}, ! Layer 3
  {21b65069-9cea-4ea8-8812-8e375dd9164f}; ! Layer 4

OS:Construction,
  {5e3e171e-e0c8-45c2-903a-15588b0e7795}, ! Handle
  ASHRAE 90.1-2004 ExtWall Mass ClimateZone alt-res 4, ! Name
  {2d9bbe68-1185-469f-9899-084f9cc2e068}, ! Surface Rendering Name
  {48b722bd-ad67-4020-8155-e40aaddecc5a}, ! Layer 1
  {f92e8093-d48b-47cb-9e50-a8c6479310d6}, ! Layer 2
  {7e614eda-31b7-45ff-9207-eeb7ed626abc}, ! Layer 3
  {21b65069-9cea-4ea8-8812-8e375dd9164f}; ! Layer 4

OS:Construction,
  {0602ccd1-7df4-4b86-813a-d4e04151dd6b}, ! Handle
  ASHRAE 90.1-2004 ExtWall Mass ClimateZone alt-res 5-6, ! Name
  {fef917f8-d618-4455-a911-1623a5b78595}, ! Surface Rendering Name
  {48b722bd-ad67-4020-8155-e40aaddecc5a}, ! Layer 1
  {f92e8093-d48b-47cb-9e50-a8c6479310d6}, ! Layer 2
  {df8c8826-bc08-4cd3-b6f3-2f7219cd102f}, ! Layer 3
  {21b65069-9cea-4ea8-8812-8e375dd9164f}; ! Layer 4

OS:Construction,
  {1e2bf94b-dc72-41a8-8861-ba4c6baacfc9}, ! Handle
  ASHRAE 90.1-2004 ExtWall Mass ClimateZone alt-res 7, ! Name
  {8877cb44-c99a-4592-9762-68cbe10034b6}, ! Surface Rendering Name
  {48b722bd-ad67-4020-8155-e40aaddecc5a}, ! Layer 1
  {f92e8093-d48b-47cb-9e50-a8c6479310d6}, ! Layer 2
  {dc3b42a4-707f-429f-b4c5-d27dad31a53e}, ! Layer 3
  {21b65069-9cea-4ea8-8812-8e375dd9164f}; ! Layer 4

OS:Construction,
  {c13bfde8-9066-46df-b2ee-1e47040eeed8}, ! Handle
  ASHRAE 90.1-2004 ExtWall Mass ClimateZone alt-res 8, ! Name
  {c2bd253a-d6bd-4ea3-a65a-d9019a4c28ce}, ! Surface Rendering Name
  {48b722bd-ad67-4020-8155-e40aaddecc5a}, ! Layer 1
  {f92e8093-d48b-47cb-9e50-a8c6479310d6}, ! Layer 2
  {f8e1d1ca-c798-4bd9-9cf4-299453a63ca6}, ! Layer 3
  {21b65069-9cea-4ea8-8812-8e375dd9164f}; ! Layer 4

OS:Construction,
  {3d062e98-c6f5-4797-8a7e-7a6c997d1257}, ! Handle
  ASHRAE 90.1-2004 ExtWall Metal ClimateZone 1, ! Name
  {96604f9e-05ae-4072-a40f-32e28d4cdade}, ! Surface Rendering Name
  {07e776c9-c502-4bb2-912d-52204f7b0e21}, ! Layer 1
  {21b65069-9cea-4ea8-8812-8e375dd9164f}; ! Layer 2

OS:Construction,
  {6e13a62c-fe14-433f-9b6d-2684badb26f4}, ! Handle
  ASHRAE 90.1-2004 ExtWall Metal ClimateZone 2-3, ! Name
  {e7d6f108-1a02-4141-9222-1f5cedc83fce}, ! Surface Rendering Name
  {07e776c9-c502-4bb2-912d-52204f7b0e21}, ! Layer 1
  {6592be4f-18b7-4b9f-b783-c3c8ff0bb71e}, ! Layer 2
  {21b65069-9cea-4ea8-8812-8e375dd9164f}; ! Layer 3

OS:Construction,
  {baacc4c6-6cbf-434d-a3be-2b7c4ffd7bc2}, ! Handle
  ASHRAE 90.1-2004 ExtWall Metal ClimateZone 4, ! Name
  {1f40ff7f-c6c5-415b-8ed0-aee85d1dc6c3}, ! Surface Rendering Name
  {07e776c9-c502-4bb2-912d-52204f7b0e21}, ! Layer 1
  {6b238633-1476-4d8a-a3bd-ddf8a4b7d7e9}, ! Layer 2
  {21b65069-9cea-4ea8-8812-8e375dd9164f}; ! Layer 3

OS:Construction,
  {4c0b9290-798e-4e95-ad34-43e26ac928d9}, ! Handle
  ASHRAE 90.1-2004 ExtWall Metal ClimateZone 5, ! Name
  {d26dac8d-d2f3-4a75-871d-0ce31aacf962}, ! Surface Rendering Name
  {07e776c9-c502-4bb2-912d-52204f7b0e21}, ! Layer 1
  {08bc3d38-5db4-40e3-a7fa-a4ce3b684447}, ! Layer 2
  {21b65069-9cea-4ea8-8812-8e375dd9164f}; ! Layer 3

OS:Construction,
  {e0c8b629-480f-49ab-8a47-66aba3ab8145}, ! Handle
  ASHRAE 90.1-2004 ExtWall Metal ClimateZone 6-8, ! Name
  {38fc0250-a9fb-477a-a337-f313db8262f7}, ! Surface Rendering Name