
OS:Version,
  {81425e2d-beaa-4fd5-805e-bca989eb1743}, !- Handle
  1.3.3;                                  !- Version Identifier

OS:Construction,
  {048c22e6-6ae1-4ed4-95ca-a9ebc1cdacb0}, !- Handle
  ASHRAE 189.1-2009 AtticFloor ClimateZone 1-8, !- Name
  ,                                       !- Surface Rendering Name
  {0a1842ef-02d4-4f4d-8da4-04b5e3695c65}, !- Layer 1
  {376133ec-2b66-496d-b94a-08ede33ffb97}, !- Layer 2
  {0a1842ef-02d4-4f4d-8da4-04b5e3695c65}; !- Layer 3

OS:StandardsInformation:Construction,
  {c3247d39-f683-4def-a537-c3c73e54d33b}, !- Handle
  {048c22e6-6ae1-4ed4-95ca-a9ebc1cdacb0}, !- Construction Name
  AtticFloor,                             !- Intended Surface Type
  WoodFramed;                             !- Standards Construction Type

OS:Material,
  {0a1842ef-02d4-4f4d-8da4-04b5e3695c65}, !- Handle
  1/2IN Gypsum,                           !- Name
  Smooth,                                 !- Roughness
  0.0127,                                 !- Thickness {m}
  0.16,                                   !- Conductivity {W/m-K}
  784.9,                                  !- Density {kg/m3}
  830.000000000001,                       !- Specific Heat {J/kg-K}
  0.9,                                    !- Thermal Absorptance
  0.92,                                   !- Solar Absorptance
  0.92;                                   !- Visible Absorptance

OS:Material,
  {376133ec-2b66-496d-b94a-08ede33ffb97}, !- Handle
  AtticFloor Insulation,                  !- Name
  MediumRough,                            !- Roughness
  0.2379,                                 !- Thickness {m}
  0.049,                                  !- Conductivity {W/m-K}
  265,                                    !- Density {kg/m3}
  836.800000000001,                       !- Specific Heat {J/kg-K}
  0.9,                                    !- Thermal Absorptance
  0.7,                                    !- Solar Absorptance
  0.7;                                    !- Visible Absorptance

OS:Construction,
  {618f0ad7-543d-4e5f-b843-a1f5ec08c52b}, !- Handle
  ASHRAE 189.1-2009 ExtRoof IEAD ClimateZone 1, !- Name
  ,                                       !- Surface Rendering Name
  {aa919034-3e68-448a-aad7-5b38bda75812}, !- Layer 1
  {3761863a-27f9-42ca-a403-427641cbdd04}, !- Layer 2
  {f7380dcc-f432-4006-9791-0771468c1947}; !- Layer 3

OS:StandardsInformation:Construction,
  {8b2978e4-52dd-4a0c-b3db-4a2fcb95f552}, !- Handle
  {618f0ad7-543d-4e5f-b843-a1f5ec08c52b}, !- Construction Name
  ExteriorRoof,                           !- Intended Surface Type
  IEAD;                                   !- Standards Construction Type

OS:Material,
  {aa919034-3e68-448a-aad7-5b38bda75812}, !- Handle
  Roof Membrane,                          !- Name
  VeryRough,                              !- Roughness
  0.0095,                                 !- Thickness {m}
  0.16,                                   !- Conductivity {W/m-K}
  1121.29,                                !- Density {kg/m3}
  1460,                                   !- Specific Heat {J/kg-K}
  0.9,                                    !- Thermal Absorptance
  0.7,                                    !- Solar Absorptance
  0.7;                                    !- Visible Absorptance

OS:Material,
  {3761863a-27f9-42ca-a403-427641cbdd04}, !- Handle
  Roof Insulation [18],                   !- Name
  MediumRough,                            !- Roughness
  0.1693,                                 !- Thickness {m}
  0.049,                                  !- Conductivity {W/m-K}
  265,                                    !- Density {kg/m3}
  836.800000000001,                       !- Specific Heat {J/kg-K}
  0.9,                                    !- Thermal Absorptance
  0.7,                                    !- Solar Absorptance
  0.7;                                    !- Visible Absorptance

OS:Material,
  {f7380dcc-f432-4006-9791-0771468c1947}, !- Handle
  Metal Decking,                          !- Name
  MediumSmooth,                           !- Roughness
  0.0015,                                 !- Thickness {m}
  45.006,                                 !- Conductivity {W/m-K}
  7680,                                   !- Density {kg/m3}
  418.4,                                  !- Specific Heat {J/kg-K}
  0.9,                                    !- Thermal Absorptance
  0.7,                                    !- Solar Absorptance
  0.3;                                    !- Visible Absorptance

OS:Construction,
  {cb71642c-40be-4aa1-8141-e2da1e4440e7}, !- Handle
  ASHRAE 189.1-2009 ExtRoof IEAD ClimateZone 2-5, !- Name
  ,                                       !- Surface Rendering Name
  {aa919034-3e68-448a-aad7-5b38bda75812}, !- Layer 1
  {48340672-3171-4fcb-b15f-242d77ddc0b3}, !- Layer 2
  {f7380dcc-f432-4006-9791-0771468c1947}; !- Layer 3

OS:StandardsInformation:Construction,
  {77c1f312-7955-4947-adfd-2d8d9e8c0b32}, !- Handle
  {cb71642c-40be-4aa1-8141-e2da1e4440e7}, !- Construction Name
  ExteriorRoof,                           !- Intended Surface Type
  IEAD;                                   !- Standards Construction Type

OS:Material,
  {48340672-3171-4fcb-b15f-242d77ddc0b3}, !- Handle
  Roof Insulation [21],                   !- Name
  MediumRough,                            !- Roughness
  0.2105,                                 !- Thickness {m}
  0.049,                                  !- Conductivity {W/m-K}
  265,                                    !- Density {kg/m3}
  836.800000000001,                       !- Specific Heat {J/kg-K}
  0.9,                                    !- Thermal Absorptance
  0.7,                                    !- Solar Absorptance
  0.7;                                    !- Visible Absorptance

OS:Construction,
  {2193c758-046f-42dc-9fa3-b1b6e27f9f59}, !- Handle
  ASHRAE 189.1-2009 ExtRoof IEAD ClimateZone 6, !- Name
  ,                                       !- Surface Rendering Name
  {aa919034-3e68-448a-aad7-5b38bda75812}, !- Layer 1
  {84495f61-357b-43bf-adfc-30280df06626}, !- Layer 2
  {f7380dcc-f432-4006-9791-0771468c1947}; !- Layer 3

OS:StandardsInformation:Construction,
  {0ae9d14c-09d8-4c85-a63a-37973f1fb295}, !- Handle
  {2193c758-046f-42dc-9fa3-b1b6e27f9f59}, !- Construction Name
  ExteriorRoof,                           !- Intended Surface Type
  IEAD;                                   !- Standards Construction Type

OS:Material,
  {84495f61-357b-43bf-adfc-30280df06626}, !- Handle
  Roof Insulation [24],                   !- Name
  MediumRough,                            !- Roughness
  0.260100000000001,                      !- Thickness {m}
  0.049,                                  !- Conductivity {W/m-K}
  265,                                    !- Density {kg/m3}
  836.800000000001,                       !- Specific Heat {J/kg-K}
  0.9,                                    !- Thermal Absorptance
  0.7,                                    !- Solar Absorptance
  0.7;                                    !- Visible Absorptance

OS:Construction,
  {02168de3-ee6e-449d-a97d-7f24c2498ce5}, !- Handle
  ASHRAE 189.1-2009 ExtRoof IEAD ClimateZone 7-8, !- Name
  ,                                       !- Surface Rendering Name
  {aa919034-3e68-448a-aad7-5b38bda75812}, !- Layer 1
  {017337cc-63a0-43db-be28-a67e568f30c0}, !- Layer 2
  {f7380dcc-f432-4006-9791-0771468c1947}; !- Layer 3

OS:StandardsInformation:Construction,
  {a58b4a33-1174-4e4a-92c1-c0e51b6e28ca}, !- Handle
  {02168de3-ee6e-449d-a97d-7f24c2498ce5}, !- Construction Name
  ExteriorRoof,                           !- Intended Surface Type
  IEAD;                                   !- Standards Construction Type

OS:Material,
  {017337cc-63a0-43db-be28-a67e568f30c0}, !- Handle
  Roof Insulation [26],                   !- Name
  MediumRough,                            !- Roughness
  0.2941,                                 !- Thickness {m}
  0.049,                                  !- Conductivity {W/m-K}
  265,                                    !- Density {kg/m3}
  836.800000000001,                       !- Specific Heat {J/kg-K}
  0.9,                                    !- Thermal Absorptance
  0.7,                                    !- Solar Absorptance
  0.7;                                    !- Visible Absorptance

OS:Construction,
  {15910a53-84cd-4814-9b93-5ef8dd6f2323}, !- Handle
  ASHRAE 189.1-2009 ExtRoof Metal ClimateZone 1, !- Name
  ,                                       !- Surface Rendering Name
  {62332593-bb1f-4bce-8c1c-79921d6e2361}, !- Layer 1
  {e259dbef-f499-480a-9036-5cd6d08131a7}; !- Layer 2

OS:StandardsInformation:Construction,
  {07ccfcae-6776-4f63-b5d3-7b547037a3f3}, !- Handle
  {15910a53-84cd-4814-9b93-5ef8dd6f2323}, !- Construction Name
  ExteriorRoof,                           !- Intended Surface Type
  Metal;                                  !- Standards Construction Type

OS:Material,
  {62332593-bb1f-4bce-8c1c-79921d6e2361}, !- Handle
  Metal Roofing,                          !- Name
  MediumSmooth,                           !- Roughness
  0.0015,                                 !- Thickness {m}
  45.006,                                 !- Conductivity {W/m-K}
  7680,                                   !- Density {kg/m3}
  418.4,                                  !- Specific Heat {J/kg-K}
  0.9,                                    !- Thermal Absorptance
  0.3,                                    !- Solar Absorptance
  0.3;                                    !- Visible Absorptance

OS:Material,
  {e259dbef-f499-480a-9036-5cd6d08131a7}, !- Handle
  Roof Insulation [19],                   !- Name
  MediumRough,                            !- Roughness
  0.1868,                                 !- Thickness {m}
  0.049,                                  !- Conductivity {W/m-K}
  265,                                    !- Density {kg/m3}
  836.800000000001,                       !- Specific Heat {J/kg-K}
  0.9,                                    !- Thermal Absorptance
  0.7,                                    !- Solar Absorptance
  0.7;                                    !- Visible Absorptance

OS:Construction,
  {3fdc072b-86cc-4bfc-bbf7-30f766c6c849}, !- Handle
  ASHRAE 189.1-2009 ExtRoof Metal ClimateZone 2-5, !- Name
  ,                                       !- Surface Rendering Name
  {62332593-bb1f-4bce-8c1c-79921d6e2361}, !- Layer 1
  {380de30b-9ebb-469d-9ea5-1cbe79706eb5}; !- Layer 2

OS:StandardsInformation:Construction,
  {43fd6c44-53ee-4ffd-9c7e-fad0800b1c47}, !- Handle
  {3fdc072b-86cc-4bfc-bbf7-30f766c6c849}, !- Construction Name
  ExteriorRoof,                           !- Intended Surface Type
  Metal;                                  !- Standards Construction Type

OS:Material,
  {380de30b-9ebb-469d-9ea5-1cbe79706eb5}, !- Handle
  Roof Insulation [22],                   !- Name
  MediumRough,                            !- Roughness
  0.2358,                                 !- Thickness {m}
  0.049,                                  !- Conductivity {W/m-K}
  265,                                    !- Density {kg/m3}
  836.800000000001,                       !- Specific Heat {J/kg-K}
  0.9,                                    !- Thermal Absorptance
  0.7,                                    !- Solar Absorptance
  0.7;                                    !- Visible Absorptance

OS:Construction,
  {e6e1186d-f3c4-43f8-bf60-9c134cebbbff}, !- Handle
  ASHRAE 189.1-2009 ExtRoof Metal ClimateZone 6, !- Name
  ,                                       !- Surface Rendering Name
  {62332593-bb1f-4bce-8c1c-79921d6e2361}, !- Layer 1
  {2561499d-1769-4a71-a5c1-9f2e789e2fb3}; !- Layer 2

OS:StandardsInformation:Construction,
  {7879921e-2547-48b0-837b-538667479b57}, !- Handle
  {e6e1186d-f3c4-43f8-bf60-9c134cebbbff}, !- Construction Name
  ExteriorRoof,                           !- Intended Surface Type
  Metal;                                  !- Standards Construction Type

OS:Material,
  {2561499d-1769-4a71-a5c1-9f2e789e2fb3}, !- Handle
  Roof Insulation [25],                   !- Name
  MediumRough,                            !- Roughness
  0.263,                                  !- Thickness {m}
  0.049,                                  !- Conductivity {W/m-K}
  265,                                    !- Density {kg/m3}
  836.800000000001,                       !- Specific Heat {J/kg-K}
  0.9,                                    !- Thermal Absorptance
  0.7,                                    !- Solar Absorptance
  0.7;                                    !- Visible Absorptance

OS:Construction,
  {5be99de2-2e40-4a04-8d2c-bc74db5747d1}, !- Handle
  ASHRAE 189.1-2009 ExtRoof Metal ClimateZone 7-8, !- Name
  ,                                       !- Surface Rendering Name
  {62332593-bb1f-4bce-8c1c-79921d6e2361}, !- Layer 1
  {3e3f8e27-3189-471a-9498-330b7dc60bbb}; !- Layer 2

OS:StandardsInformation:Construction,
  {3dfc832a-d68d-4924-909f-134d309e6932}, !- Handle
  {5be99de2-2e40-4a04-8d2c-bc74db5747d1}, !- Construction Name
  ExteriorRoof,                           !- Intended Surface Type
  Metal;                                  !- Standards Construction Type

OS:Material,
  {3e3f8e27-3189-471a-9498-330b7dc60bbb}, !- Handle
  Roof Insulation [27],                   !- Name
  MediumRough,                            !- Roughness
  0.297000000000001,                      !- Thickness {m}
  0.049,                                  !- Conductivity {W/m-K}
  265,                                    !- Density {kg/m3}
  836.800000000001,                       !- Specific Heat {J/kg-K}
  0.9,                                    !- Thermal Absorptance
  0.7,                                    !- Solar Absorptance
  0.7;                                    !- Visible Absorptance

OS:Construction,
  {21792686-b7ee-4b57-8ac7-95832e774aea}, !- Handle
  ASHRAE 189.1-2009 ExtWall Mass ClimateZone 1, !- Name
  ,                                       !- Surface Rendering Name
  {fec5012c-1961-4073-9e94-3c9d667b3462}, !- Layer 1
  {9171afe2-bf97-4ec0-a654-bdc6f6326227}, !- Layer 2
  {f20705c5-c8e1-45c2-ae1d-4cc5f192e07f}, !- Layer 3
  {0a1842ef-02d4-4f4d-8da4-04b5e3695c65}; !- Layer 4

OS:StandardsInformation:Construction,
  {f9b21dbc-5518-44b0-bafc-220c33be033b}, !- Handle
  {21792686-b7ee-4b57-8ac7-95832e774aea}, !- Construction Name
  ExteriorWall,                           !- Intended Surface Type
  Mass;                                   !- Standards Construction Type

OS:Material,
  {fec5012c-1961-4073-9e94-3c9d667b3462}, !- Handle
  1IN Stucco,                             !- Name
  Smooth,                                 !- Roughness
  0.0253,                                 !- Thickness {m}
  0.691799999999999,                      !- Conductivity {W/m-K}
  1858,                                   !- Density {kg/m3}
  836.999999999999,                       !- Specific Heat {J/kg-K}
  0.9,                                    !- Thermal Absorptance
  0.92,                                   !- Solar Absorptance
  0.92;                                   !- Visible Absorptance

OS:Material,
  {9171afe2-bf97-4ec0-a654-bdc6f6326227}, !- Handle
  8IN Concrete HW,                        !- Name
  MediumRough,                            !- Roughness
  0.2033,                                 !- Thickness {m}
  1.72959999999999,                       !- Conductivity {W/m-K}
  2242.99999999999,                       !- Density {kg/m3}
  836.999999999999,                       !- Specific Heat {J/kg-K}
  0.9,                                    !- Thermal Absorptance
  0.65,                                   !- Solar Absorptance
  0.65;                                   !- Visible Absorptance

OS:Material,
  {f20705c5-c8e1-45c2-ae1d-4cc5f192e07f}, !- Handle
  Wall Insulation [31],                   !- Name
  MediumRough,                            !- Roughness
  0.0337000000000001,                     !- Thickness {m}
  0.0432,                                 !- Conductivity {W/m-K}
  91,                                     !- Density {kg/m3}
  836.999999999999,                       !- Specific Heat {J/kg-K}
  0.9,                                    !- Thermal Absorptance
  0.5,                                    !- Solar Absorptance
  0.5;                                    !- Visible Absorptance

OS:Construction,
  {d2898d73-98a6-42bf-80ed-e2d6d4558515}, !- Handle
  ASHRAE 189.1-2009 ExtWall Mass ClimateZone 2, !- Name
  ,                                       !- Surface Rendering Name
  {fec5012c-1961-4073-9e94-3c9d667b3462}, !- Layer 1
  {9171afe2-bf97-4ec0-a654-bdc6f6326227}, !- Layer 2
  {1ce9835e-98b9-4248-b691-88f30e3fdf9e}, !- Layer 3
  {0a1842ef-02d4-4f4d-8da4-04b5e3695c65}; !- Layer 4

OS:StandardsInformation:Construction,
  {4c9554d2-85c6-4c4c-8579-45af22b59421}, !- Handle
  {d2898d73-98a6-42bf-80ed-e2d6d4558515}, !- Construction Name
  ExteriorWall,                           !- Intended Surface Type
  Mass;                                   !- Standards Construction Type

OS:Material,
  {1ce9835e-98b9-4248-b691-88f30e3fdf9e}, !- Handle
  Wall Insulation [35],                   !- Name
  MediumRough,                            !- Roughness
  0.0452,                                 !- Thickness {m}
  0.0432,                                 !- Conductivity {W/m-K}
  91,                                     !- Density {kg/m3}
  836.999999999999,                       !- Specific Heat {J/kg-K}
  0.9,                                    !- Thermal Absorptance
  0.5,                                    !- Solar Absorptance
  0.5;                                    !- Visible Absorptance

OS:Construction,
  {f7904f3a-f0d7-4b90-adda-8be30b0aad03}, !- Handle
  ASHRAE 189.1-2009 ExtWall Mass ClimateZone 3, !- Name
  ,                                       !- Surface Rendering Name
  {fec5012c-1961-4073-9e94-3c9d667b3462}, !- Layer 1
  {9171afe2-bf97-4ec0-a654-bdc6f6326227}, !- Layer 2
  {09f10cd9-9ec6-4519-b6ec-7a835a120859}, !- Layer 3
  {0a1842ef-02d4-4f4d-8da4-04b5e3695c65}; !- Layer 4

OS:StandardsInformation:Construction,
  {6edef1c5-a262-4ac0-a4b7-6981a711b549}, !- Handle
  {f7904f3a-f0d7-4b90-adda-8be30b0aad03}, !- Construction Name
  ExteriorWall,                           !- Intended Surface Type
  Mass;                                   !- Standards Construction Type

OS:Material,
  {09f10cd9-9ec6-4519-b6ec-7a835a120859}, !- Handle
  Wall Insulation [36],                   !- Name
  MediumRough,                            !- Roughness
  0.0565999999999999,                     !- Thickness {m}
  0.0432,                                 !- Conductivity {W/m-K}
  91,                                     !- Density {kg/m3}
  836.999999999999,                       !- Specific Heat {J/kg-K}
  0.9,                                    !- Thermal Absorptance
  0.5,                                    !- Solar Absorptance
  0.5;                                    !- Visible Absorptance

OS:Construction,
  {5c899ae9-1cd0-4db3-8ea3-7be6faf17a7f}, !- Handle
  ASHRAE 189.1-2009 ExtWall Mass ClimateZone 4, !- Name
  ,                                       !- Surface Rendering Name
  {fec5012c-1961-4073-9e94-3c9d667b3462}, !- Layer 1
  {9171afe2-bf97-4ec0-a654-bdc6f6326227}, !- Layer 2
  {0041573b-65ba-4f2c-8f06-7f6ae83329e4}, !- Layer 3
  {0a1842ef-02d4-4f4d-8da4-04b5e3695c65}; !- Layer 4

OS:StandardsInformation:Construction,
  {b690a08f-60d4-4529-977e-dbcf0c50ce5f}, !- Handle
  {5c899ae9-1cd0-4db3-8ea3-7be6faf17a7f}, !- Construction Name
  ExteriorWall,                           !- Intended Surface Type
  Mass;                                   !- Standards Construction Type

OS:Material,
  {0041573b-65ba-4f2c-8f06-7f6ae83329e4}, !- Handle
  Wall Insulation [37],                   !- Name
  MediumRough,                            !- Roughness
  0.0680999999999999,                     !- Thickness {m}
  0.0432,                                 !- Conductivity {W/m-K}
  91,                                     !- Density {kg/m3}
  836.999999999999,                       !- Specific Heat {J/kg-K}
  0.9,                                    !- Thermal Absorptance
  0.5,                                    !- Solar Absorptance
  0.5;                                    !- Visible Absorptance

OS:Construction,
  {2be823bc-cca4-4a3a-b3d0-d102a3958454}, !- Handle
  ASHRAE 189.1-2009 ExtWall Mass ClimateZone 5, !- Name
  ,                                       !- Surface Rendering Name
  {fec5012c-1961-4073-9e94-3c9d667b3462}, !- Layer 1
  {9171afe2-bf97-4ec0-a654-bdc6f6326227}, !- Layer 2
  {93089c06-04c8-4a41-9b61-376faaae866f}, !- Layer 3
  {0a1842ef-02d4-4f4d-8da4-04b5e3695c65}; !- Layer 4

OS:StandardsInformation:Construction,
  {d4b22f95-30d8-4b31-8c6a-ef137aea233e}, !- Handle
  {2be823bc-cca4-4a3a-b3d0-d102a3958454}, !- Construction Name
  ExteriorWall,                           !- Intended Surface Type
  Mass;                                   !- Standards Construction Type

OS:Material,
  {93089c06-04c8-4a41-9b61-376faaae866f}, !- Handle
  Wall Insulation [40],                   !- Name
  MediumRough,                            !- Roughness
  0.0793999999999999,                     !- Thickness {m}
  0.0432,                                 !- Conductivity {W/m-K}
  91,                                     !- Density {kg/m3}
  836.999999999999,                       !- Specific Heat {J/kg-K}
  0.9,                                    !- Thermal Absorptance
  0.5,                                    !- Solar Absorptance
  0.5;                                    !- Visible Absorptance

OS:Construction,
  {ae0053f4-997a-48cc-8644-120b6157517e}, !- Handle
  ASHRAE 189.1-2009 ExtWall Mass ClimateZone 6, !- Name
  ,                                       !- Surface Rendering Name
  {fec5012c-1961-4073-9e94-3c9d667b3462}, !- Layer 1
  {9171afe2-bf97-4ec0-a654-bdc6f6326227}, !- Layer 2
  {f3c4e1bc-88dd-4e45-a908-8cf12dcd80cf}, !- Layer 3
  {0a1842ef-02d4-4f4d-8da4-04b5e3695c65}; !- Layer 4

OS:StandardsInformation:Construction,
  {4e3197a9-26cb-400e-ae8b-1d2dd2635954}, !- Handle
  {ae0053f4-997a-48cc-8644-120b6157517e}, !- Construction Name
  ExteriorWall,                           !- Intended Surface Type
  Mass;                                   !- Standards Construction Type

OS:Material,
  {f3c4e1bc-88dd-4e45-a908-8cf12dcd80cf}, !- Handle
  Wall Insulation [42],                   !- Name
  MediumRough,                            !- Roughness
  0.0913999999999999,                     !- Thickness {m}
  0.0432,                                 !- Conductivity {W/m-K}
  91,                                     !- Density {kg/m3}
  836.999999999999,                       !- Specific Heat {J/kg-K}
  0.9,                                    !- Thermal Absorptance
  0.5,                                    !- Solar Absorptance
  0.5;                                    !- Visible Absorptance

OS:Construction,
  {96d3c256-3ce8-433f-87da-f38561d1aa92}, !- Handle
  ASHRAE 189.1-2009 ExtWall Mass ClimateZone 7-8, !- Name
  ,                                       !- Surface Rendering Name
  {fec5012c-1961-4073-9e94-3c9d667b3462}, !- Layer 1
  {9171afe2-bf97-4ec0-a654-bdc6f6326227}, !- Layer 2
  {917284be-5d1a-4d28-ba28-26b8c5155531}, !- Layer 3
  {0a1842ef-02d4-4f4d-8da4-04b5e3695c65}; !- Layer 4

OS:StandardsInformation:Construction,
  {0e341fdd-3797-4391-8458-a6478dcf79c3}, !- Handle
  {96d3c256-3ce8-433f-87da-f38561d1aa92}, !- Construction Name
  ExteriorWall,                           !- Intended Surface Type
  Mass;                                   !- Standards Construction Type

OS:Material,
  {917284be-5d1a-4d28-ba28-26b8c5155531}, !- Handle
  Wall Insulation [44],                   !- Name
  MediumRough,                            !- Roughness
  0.1104,                                 !- Thickness {m}
  0.0432,                                 !- Conductivity {W/m-K}
  91,                                     !- Density {kg/m3}
  836.999999999999,                       !- Specific Heat {J/kg-K}
  0.9,                                    !- Thermal Absorptance
  0.5,                                    !- Solar Absorptance
  0.5;                                    !- Visible Absorptance

OS:Construction,
  {1e3bab29-8fc6-427c-bbb2-ac3fd27a320e}, !- Handle
  ASHRAE 189.1-2009 ExtWall Mass ClimateZone alt-res 1, !- Name
  ,                                       !- Surface Rendering Name
  {fec5012c-1961-4073-9e94-3c9d667b3462}, !- Layer 1
  {9171afe2-bf97-4ec0-a654-bdc6f6326227}, !- Layer 2
  {1ce9835e-98b9-4248-b691-88f30e3fdf9e}, !- Layer 3
  {0a1842ef-02d4-4f4d-8da4-04b5e3695c65}; !- Layer 4

OS:StandardsInformation:Construction,
  {810ac493-f587-4379-ac56-58703364d77b}, !- Handle
  {1e3bab29-8fc6-427c-bbb2-ac3fd27a320e}, !- Construction Name
  ExteriorWall,                           !- Intended Surface Type
  Mass;                                   !- Standards Construction Type

OS:Construction,
  {a14c6ff1-3602-4d50-9b43-698af32eff49}, !- Handle
  ASHRAE 189.1-2009 ExtWall Mass ClimateZone alt-res 2, !- Name
  ,                                       !- Surface Rendering Name
  {fec5012c-1961-4073-9e94-3c9d667b3462}, !- Layer 1
  {9171afe2-bf97-4ec0-a654-bdc6f6326227}, !- Layer 2
  {09f10cd9-9ec6-4519-b6ec-7a835a120859}, !- Layer 3
  {0a1842ef-02d4-4f4d-8da4-04b5e3695c65}; !- Layer 4

OS:StandardsInformation:Construction,
  {e6a2cda7-c5c2-4166-be65-bc6be85c9465}, !- Handle
  {a14c6ff1-3602-4d50-9b43-698af32eff49}, !- Construction Name
  ExteriorWall,                           !- Intended Surface Type
  Mass;                                   !- Standards Construction Type

OS:Construction,
  {485f7ff6-77bb-41dd-a711-42d47df9aec5}, !- Handle
  ASHRAE 189.1-2009 ExtWall Mass ClimateZone alt-res 3, !- Name
  ,                                       !- Surface Rendering Name
  {fec5012c-1961-4073-9e94-3c9d667b3462}, !- Layer 1
  {9171afe2-bf97-4ec0-a654-bdc6f6326227}, !- Layer 2
  {0041573b-65ba-4f2c-8f06-7f6ae83329e4}, !- Layer 3
  {0a1842ef-02d4-4f4d-8da4-04b5e3695c65}; !- Layer 4

OS:StandardsInformation:Construction,
  {b6c20626-e3f0-445f-ab3e-cd3d16e30fe6}, !- Handle
  {485f7ff6-77bb-41dd-a711-42d47df9aec5}, !- Construction Name
  ExteriorWall,                           !- Intended Surface Type
  Mass;                                   !- Standards Construction Type

OS:Construction,
  {ee66a606-812f-43f3-a2a3-a87e9e0ad589}, !- Handle
  ASHRAE 189.1-2009 ExtWall Mass ClimateZone alt-res 4, !- Name
  ,                                       !- Surface Rendering Name
  {fec5012c-1961-4073-9e94-3c9d667b3462}, !- Layer 1
  {9171afe2-bf97-4ec0-a654-bdc6f6326227}, !- Layer 2
  {93089c06-04c8-4a41-9b61-376faaae866f}, !- Layer 3
  {0a1842ef-02d4-4f4d-8da4-04b5e3695c65}; !- Layer 4

OS:StandardsInformation:Construction,
  {a7cd59e2-d3c8-40f5-996f-ae12c964c168}, !- Handle
  {ee66a606-812f-43f3-a2a3-a87e9e0ad589}, !- Construction Name
  ExteriorWall,                           !- Intended Surface Type
  Mass;                                   !- Standards Construction Type

OS:Construction,
  {137427b6-806a-4813-b817-dd2e12d98004}, !- Handle
  ASHRAE 189.1-2009 ExtWall Mass ClimateZone alt-res 5, !- Name
  ,                                       !- Surface Rendering Name
  {fec5012c-1961-4073-9e94-3c9d667b3462}, !- Layer 1
  {9171afe2-bf97-4ec0-a654-bdc6f6326227}, !- Layer 2
  {f3c4e1bc-88dd-4e45-a908-8cf12dcd80cf}, !- Layer 3
  {0a1842ef-02d4-4f4d-8da4-04b5e3695c65}; !- Layer 4

OS:StandardsInformation:Construction,
  {05e6137e-d38d-435f-b608-d7ded908fe87}, !- Handle
  {137427b6-806a-4813-b817-dd2e12d98004}, !- Construction Name
  ExteriorWall,                           !- Intended Surface Type
  Mass;                                   !- Standards Construction Type

OS:Construction,
  {56922e65-0d2b-48b5-b56b-1c8dcb8971e4}, !- Handle
  ASHRAE 189.1-2009 ExtWall Mass ClimateZone alt-res 6, !- Name
  ,                                       !- Surface Rendering Name
  {fec5012c-1961-4073-9e94-3c9d667b3462}, !- Layer 1
  {9171afe2-bf97-4ec0-a654-bdc6f6326227}, !- Layer 2
  {917284be-5d1a-4d28-ba28-26b8c5155531}, !- Layer 3
  {0a1842ef-02d4-4f4d-8da4-04b5e3695c65}; !- Layer 4

OS:StandardsInformation:Construction,
  {e7e3dc30-ee1d-442d-b574-db2541fbcd3f}, !- Handle
  {56922e65-0d2b-48b5-b56b-1c8dcb8971e4}, !- Construction Name
  ExteriorWall,                           !- Intended Surface Type
  Mass;                                   !- Standards Construction Type

OS:Construction,
  {a747e8ea-3129-44ad-bc9f-f1822a86db0e}, !- Handle
  ASHRAE 189.1-2009 ExtWall Mass ClimateZone alt-res 7, !- Name
  ,                                       !- Surface Rendering Name
  {fec5012c-1961-4073-9e94-3c9d667b3462}, !- Layer 1
  {9171afe2-bf97-4ec0-a654-bdc6f6326227}, !- Layer 2
  {917284be-5d1a-4d28-ba28-26b8c5155531}, !- Layer 3
  {0a1842ef-02d4-4f4d-8da4-04b5e3695c65}; !- Layer 4

OS:StandardsInformation:Construction,
  {1326bc70-2c3a-4a27-9b79-f5ee1e1b0d8a}, !- Handle
  {a747e8ea-3129-44ad-bc9f-f1822a86db0e}, !- Construction Name
  ExteriorWall,                           !- Intended Surface Type
  Mass;                                   !- Standards Construction Type

OS:Construction,
  {3096c42e-1371-431c-9e2c-c07fc1360c4f}, !- Handle
  ASHRAE 189.1-2009 ExtWall Mass ClimateZone alt-res 8, !- Name