
OS:Version,
  {2d9d8e0f-38c1-40e7-8717-0f885c199071}, !- Handle
  1.3.3;                                  !- Version Identifier

OS:Construction,
  {72230661-4510-452c-8ef6-fc2f4e8812b5}, !- Handle
  ASHRAE 189.1-2009 AtticFloor ClimateZone 1-8, !- Name
  ,                                       !- Surface Rendering Name
  {f88fb0ba-1c02-4058-a087-dc77aa9d3762}, !- Layer 1
  {ba08867c-6d4a-4f8e-8237-17b9703e04b5}, !- Layer 2
  {f88fb0ba-1c02-4058-a087-dc77aa9d3762}; !- Layer 3

OS:StandardsInformation:Construction,
  {16342215-bf02-4945-abf8-237f7f697847}, !- Handle
  {72230661-4510-452c-8ef6-fc2f4e8812b5}, !- Construction Name
  AtticFloor,                             !- Intended Surface Type
  WoodFramed;                             !- Standards Construction Type

OS:Material,
  {f88fb0ba-1c02-4058-a087-dc77aa9d3762}, !- Handle
  1/2IN Gypsum,                           !- Name
  Smooth,                                 !- Roughness
  0.0127,                                 !- Thickness {m}
  0.16,                                   !- Conductivity {W/m-K}
  784.9,                                  !- Density {kg/m3}
  830.000000000001,                       !- Specific Heat {J/kg-K}
  0.9,                                    !- Thermal Absorptance
  0.92,                                   !- Solar Absorptance
  0.92;                                   !- Visible Absorptance

OS:Material,
  {ba08867c-6d4a-4f8e-8237-17b9703e04b5}, !- Handle
  AtticFloor Insulation,                  !- Name
  MediumRough,                            !- Roughness
  0.2379,                                 !- Thickness {m}
  0.049,                                  !- Conductivity {W/m-K}
  265,                                    !- Density {kg/m3}
  836.800000000001,                       !- Specific Heat {J/kg-K}
  0.9,                                    !- Thermal Absorptance
  0.7,                                    !- Solar Absorptance
  0.7;                                    !- Visible Absorptance

OS:Construction,
  {52ccd1af-72c2-413c-80cf-58066a00b736}, !- Handle
  ASHRAE 189.1-2009 ExtRoof IEAD ClimateZone 1, !- Name
  ,                                       !- Surface Rendering Name
  {a1dd5165-5044-4a9a-824f-58ca3f230b72}, !- Layer 1
  {189c5222-1b56-4972-8284-111c7b384ad2}, !- Layer 2
  {b683e255-6448-4426-b240-26b4987677ea}; !- Layer 3

OS:StandardsInformation:Construction,
  {7801e378-6d88-42ee-9cc6-2719dab1a249}, !- Handle
  {52ccd1af-72c2-413c-80cf-58066a00b736}, !- Construction Name
  ExteriorRoof,                           !- Intended Surface Type
  IEAD;                                   !- Standards Construction Type

OS:Material,
  {a1dd5165-5044-4a9a-824f-58ca3f230b72}, !- Handle
  Roof Membrane,                          !- Name
  VeryRough,                              !- Roughness
  0.0095,                                 !- Thickness {m}
  0.16,                                   !- Conductivity {W/m-K}
  1121.29,                                !- Density {kg/m3}
  1460,                                   !- Specific Heat {J/kg-K}
  0.9,                                    !- Thermal Absorptance
  0.7,                                    !- Solar Absorptance
  0.7;                                    !- Visible Absorptance

OS:Material,
  {189c5222-1b56-4972-8284-111c7b384ad2}, !- Handle
  Roof Insulation [18],                   !- Name
  MediumRough,                            !- Roughness
  0.1693,                                 !- Thickness {m}
  0.049,                                  !- Conductivity {W/m-K}
  265,                                    !- Density {kg/m3}
  836.800000000001,                       !- Specific Heat {J/kg-K}
  0.9,                                    !- Thermal Absorptance
  0.7,                                    !- Solar Absorptance
  0.7;                                    !- Visible Absorptance

OS:Material,
  {b683e255-6448-4426-b240-26b4987677ea}, !- Handle
  Metal Decking,                          !- Name
  MediumSmooth,                           !- Roughness
  0.0015,                                 !- Thickness {m}
  45.006,                                 !- Conductivity {W/m-K}
  7680,                                   !- Density {kg/m3}
  418.4,                                  !- Specific Heat {J/kg-K}
  0.9,                                    !- Thermal Absorptance
  0.7,                                    !- Solar Absorptance
  0.3;                                    !- Visible Absorptance

OS:Construction,
  {898661df-23cd-4add-81bd-17da43451dea}, !- Handle
  ASHRAE 189.1-2009 ExtRoof IEAD ClimateZone 2-5, !- Name
  ,                                       !- Surface Rendering Name
  {a1dd5165-5044-4a9a-824f-58ca3f230b72}, !- Layer 1
  {dfe5f042-5001-492c-ab81-ba04c37c9209}, !- Layer 2
  {b683e255-6448-4426-b240-26b4987677ea}; !- Layer 3

OS:StandardsInformation:Construction,
  {a20deaf8-0aa2-42f3-80a0-2276f4ad2894}, !- Handle
  {898661df-23cd-4add-81bd-17da43451dea}, !- Construction Name
  ExteriorRoof,                           !- Intended Surface Type
  IEAD;                                   !- Standards Construction Type

OS:Material,
  {dfe5f042-5001-492c-ab81-ba04c37c9209}, !- Handle
  Roof Insulation [21],                   !- Name
  MediumRough,                            !- Roughness
  0.2105,                                 !- Thickness {m}
  0.049,                                  !- Conductivity {W/m-K}
  265,                                    !- Density {kg/m3}
  836.800000000001,                       !- Specific Heat {J/kg-K}
  0.9,                                    !- Thermal Absorptance
  0.7,                                    !- Solar Absorptance
  0.7;                                    !- Visible Absorptance

OS:Construction,
  {86094dbe-41dd-48c1-ae7b-b3807e288373}, !- Handle
  ASHRAE 189.1-2009 ExtRoof IEAD ClimateZone 6, !- Name
  ,                                       !- Surface Rendering Name
  {a1dd5165-5044-4a9a-824f-58ca3f230b72}, !- Layer 1
  {dd64e38c-b7cc-43e2-875a-e58897c252da}, !- Layer 2
  {b683e255-6448-4426-b240-26b4987677ea}; !- Layer 3

OS:StandardsInformation:Construction,
  {ae961ca0-98dc-4c79-bbaf-d735992e9eeb}, !- Handle
  {86094dbe-41dd-48c1-ae7b-b3807e288373}, !- Construction Name
  ExteriorRoof,                           !- Intended Surface Type
  IEAD;                                   !- Standards Construction Type

OS:Material,
  {dd64e38c-b7cc-43e2-875a-e58897c252da}, !- Handle
  Roof Insulation [24],                   !- Name
  MediumRough,                            !- Roughness
  0.260100000000001,                      !- Thickness {m}
  0.049,                                  !- Conductivity {W/m-K}
  265,                                    !- Density {kg/m3}
  836.800000000001,                       !- Specific Heat {J/kg-K}
  0.9,                                    !- Thermal Absorptance
  0.7,                                    !- Solar Absorptance
  0.7;                                    !- Visible Absorptance

OS:Construction,
  {eb2574fb-0986-4ce8-8ca2-66c249ecdb32}, !- Handle
  ASHRAE 189.1-2009 ExtRoof IEAD ClimateZone 7-8, !- Name
  ,                                       !- Surface Rendering Name
  {a1dd5165-5044-4a9a-824f-58ca3f230b72}, !- Layer 1
  {bb66168d-4567-4569-8ad7-784e774a6d97}, !- Layer 2
  {b683e255-6448-4426-b240-26b4987677ea}; !- Layer 3

OS:StandardsInformation:Construction,
  {9d8f30d3-9794-4912-9908-ef8c19112298}, !- Handle
  {eb2574fb-0986-4ce8-8ca2-66c249ecdb32}, !- Construction Name
  ExteriorRoof,                           !- Intended Surface Type
  IEAD;                                   !- Standards Construction Type

OS:Material,
  {bb66168d-4567-4569-8ad7-784e774a6d97}, !- Handle
  Roof Insulation [26],                   !- Name
  MediumRough,                            !- Roughness
  0.2941,                                 !- Thickness {m}
  0.049,                                  !- Conductivity {W/m-K}
  265,                                    !- Density {kg/m3}
  836.800000000001,                       !- Specific Heat {J/kg-K}
  0.9,                                    !- Thermal Absorptance
  0.7,                                    !- Solar Absorptance
  0.7;                                    !- Visible Absorptance

OS:Construction,
  {7e128026-b237-4ac0-bac8-67f4feb7f77f}, !- Handle
  ASHRAE 189.1-2009 ExtRoof Metal ClimateZone 1, !- Name
  ,                                       !- Surface Rendering Name
  {da94dce9-14e4-4910-9171-3696c40d061d}, !- Layer 1
  {d62b54c2-8c55-4806-905d-2a2fefa99cad}; !- Layer 2

OS:StandardsInformation:Construction,
  {76085ed5-b8e0-4784-9d80-144e0255d055}, !- Handle
  {7e128026-b237-4ac0-bac8-67f4feb7f77f}, !- Construction Name
  ExteriorRoof,                           !- Intended Surface Type
  Metal;                                  !- Standards Construction Type

OS:Material,
  {da94dce9-14e4-4910-9171-3696c40d061d}, !- Handle
  Metal Roofing,                          !- Name
  MediumSmooth,                           !- Roughness
  0.0015,                                 !- Thickness {m}
  45.006,                                 !- Conductivity {W/m-K}
  7680,                                   !- Density {kg/m3}
  418.4,                                  !- Specific Heat {J/kg-K}
  0.9,                                    !- Thermal Absorptance
  0.3,                                    !- Solar Absorptance
  0.3;                                    !- Visible Absorptance

OS:Material,
  {d62b54c2-8c55-4806-905d-2a2fefa99cad}, !- Handle
  Roof Insulation [19],                   !- Name
  MediumRough,                            !- Roughness
  0.1868,                                 !- Thickness {m}
  0.049,                                  !- Conductivity {W/m-K}
  265,                                    !- Density {kg/m3}
  836.800000000001,                       !- Specific Heat {J/kg-K}
  0.9,                                    !- Thermal Absorptance
  0.7,                                    !- Solar Absorptance
  0.7;                                    !- Visible Absorptance

OS:Construction,
  {7141b47b-290b-46f2-a9ee-02a6742ea87d}, !- Handle
  ASHRAE 189.1-2009 ExtRoof Metal ClimateZone 2-5, !- Name
  ,                                       !- Surface Rendering Name
  {da94dce9-14e4-4910-9171-3696c40d061d}, !- Layer 1
  {7989e512-614f-4cf2-b49a-9e1519902b83}; !- Layer 2

OS:StandardsInformation:Construction,
  {fa0ce798-7c87-4564-b2f6-2a08e7b8b9e0}, !- Handle
  {7141b47b-290b-46f2-a9ee-02a6742ea87d}, !- Construction Name
  ExteriorRoof,                           !- Intended Surface Type
  Metal;                                  !- Standards Construction Type

OS:Material,
  {7989e512-614f-4cf2-b49a-9e1519902b83}, !- Handle
  Roof Insulation [22],                   !- Name
  MediumRough,                            !- Roughness
  0.2358,                                 !- Thickness {m}
  0.049,                                  !- Conductivity {W/m-K}
  265,                                    !- Density {kg/m3}
  836.800000000001,                       !- Specific Heat {J/kg-K}
  0.9,                                    !- Thermal Absorptance
  0.7,                                    !- Solar Absorptance
  0.7;                                    !- Visible Absorptance

OS:Construction,
  {eb8287c4-6b84-4f81-ac03-21c6fc1536d7}, !- Handle
  ASHRAE 189.1-2009 ExtRoof Metal ClimateZone 6, !- Name
  ,                                       !- Surface Rendering Name
  {da94dce9-14e4-4910-9171-3696c40d061d}, !- Layer 1
  {fb597187-e3a3-4fa4-9006-51d4795a31cc}; !- Layer 2

OS:StandardsInformation:Construction,
  {2edbc4fd-d4b8-4611-ad8c-e2a02d43bdf8}, !- Handle
  {eb8287c4-6b84-4f81-ac03-21c6fc1536d7}, !- Construction Name
  ExteriorRoof,                           !- Intended Surface Type
  Metal;                                  !- Standards Construction Type

OS:Material,
  {fb597187-e3a3-4fa4-9006-51d4795a31cc}, !- Handle
  Roof Insulation [25],                   !- Name
  MediumRough,                            !- Roughness
  0.263,                                  !- Thickness {m}
  0.049,                                  !- Conductivity {W/m-K}
  265,                                    !- Density {kg/m3}
  836.800000000001,                       !- Specific Heat {J/kg-K}
  0.9,                                    !- Thermal Absorptance
  0.7,                                    !- Solar Absorptance
  0.7;                                    !- Visible Absorptance

OS:Construction,
  {49474148-f88e-48b4-b85b-9f02b40ba5e3}, !- Handle
  ASHRAE 189.1-2009 ExtRoof Metal ClimateZone 7-8, !- Name
  ,                                       !- Surface Rendering Name
  {da94dce9-14e4-4910-9171-3696c40d061d}, !- Layer 1
  {ddce6eec-e8f7-4312-b842-a3e3338aeda2}; !- Layer 2

OS:StandardsInformation:Construction,
  {985d3264-26c9-41e5-85fc-a1c3401e5604}, !- Handle
  {49474148-f88e-48b4-b85b-9f02b40ba5e3}, !- Construction Name
  ExteriorRoof,                           !- Intended Surface Type
  Metal;                                  !- Standards Construction Type

OS:Material,
  {ddce6eec-e8f7-4312-b842-a3e3338aeda2}, !- Handle
  Roof Insulation [27],                   !- Name
  MediumRough,                            !- Roughness
  0.297000000000001,                      !- Thickness {m}
  0.049,                                  !- Conductivity {W/m-K}
  265,                                    !- Density {kg/m3}
  836.800000000001,                       !- Specific Heat {J/kg-K}
  0.9,                                    !- Thermal Absorptance
  0.7,                                    !- Solar Absorptance
  0.7;                                    !- Visible Absorptance

OS:Construction,
  {c0150755-ce57-4b5c-a9b1-85af7cf2e12f}, !- Handle
  ASHRAE 189.1-2009 ExtWall Mass ClimateZone 1, !- Name
  ,                                       !- Surface Rendering Name
  {5a5cc154-7a5e-474b-b18b-18b0bbc4f40a}, !- Layer 1
  {11abdf02-ffe9-4ee2-ac61-a29004f12ae5}, !- Layer 2
  {951d96eb-1da3-4a52-a1ff-20e7281cfd62}, !- Layer 3
  {f88fb0ba-1c02-4058-a087-dc77aa9d3762}; !- Layer 4

OS:StandardsInformation:Construction,
  {faf8a82d-3b90-4c58-bf71-7650c2e8fa7e}, !- Handle
  {c0150755-ce57-4b5c-a9b1-85af7cf2e12f}, !- Construction Name
  ExteriorWall,                           !- Intended Surface Type
  Mass;                                   !- Standards Construction Type

OS:Material,
  {5a5cc154-7a5e-474b-b18b-18b0bbc4f40a}, !- Handle
  1IN Stucco,                             !- Name
  Smooth,                                 !- Roughness
  0.0253,                                 !- Thickness {m}
  0.691799999999999,                      !- Conductivity {W/m-K}
  1858,                                   !- Density {kg/m3}
  836.999999999999,                       !- Specific Heat {J/kg-K}
  0.9,                                    !- Thermal Absorptance
  0.92,                                   !- Solar Absorptance
  0.92;                                   !- Visible Absorptance

OS:Material,
  {11abdf02-ffe9-4ee2-ac61-a29004f12ae5}, !- Handle
  8IN Concrete HW,                        !- Name
  MediumRough,                            !- Roughness
  0.2033,                                 !- Thickness {m}
  1.72959999999999,                       !- Conductivity {W/m-K}
  2242.99999999999,                       !- Density {kg/m3}
  836.999999999999,                       !- Specific Heat {J/kg-K}
  0.9,                                    !- Thermal Absorptance
  0.65,                                   !- Solar Absorptance
  0.65;                                   !- Visible Absorptance

OS:Material,
  {951d96eb-1da3-4a52-a1ff-20e7281cfd62}, !- Handle
  Wall Insulation [31],                   !- Name
  MediumRough,                            !- Roughness
  0.0337000000000001,                     !- Thickness {m}
  0.0432,                                 !- Conductivity {W/m-K}
  91,                                     !- Density {kg/m3}
  836.999999999999,                       !- Specific Heat {J/kg-K}
  0.9,                                    !- Thermal Absorptance
  0.5,                                    !- Solar Absorptance
  0.5;                                    !- Visible Absorptance

OS:Construction,
  {e6842afe-b405-411e-a796-ca544ee7b9d0}, !- Handle
  ASHRAE 189.1-2009 ExtWall Mass ClimateZone 2, !- Name
  ,                                       !- Surface Rendering Name
  {5a5cc154-7a5e-474b-b18b-18b0bbc4f40a}, !- Layer 1
  {11abdf02-ffe9-4ee2-ac61-a29004f12ae5}, !- Layer 2
  {b70e2629-6b08-42eb-9112-902ff22d7e6f}, !- Layer 3
  {f88fb0ba-1c02-4058-a087-dc77aa9d3762}; !- Layer 4

OS:StandardsInformation:Construction,
  {69dfadf6-cb71-44e6-abf7-a6afbf555fb6}, !- Handle
  {e6842afe-b405-411e-a796-ca544ee7b9d0}, !- Construction Name
  ExteriorWall,                           !- Intended Surface Type
  Mass;                                   !- Standards Construction Type

OS:Material,
  {b70e2629-6b08-42eb-9112-902ff22d7e6f}, !- Handle
  Wall Insulation [35],                   !- Name
  MediumRough,                            !- Roughness
  0.0452,                                 !- Thickness {m}
  0.0432,                                 !- Conductivity {W/m-K}
  91,                                     !- Density {kg/m3}
  836.999999999999,                       !- Specific Heat {J/kg-K}
  0.9,                                    !- Thermal Absorptance
  0.5,                                    !- Solar Absorptance
  0.5;                                    !- Visible Absorptance

OS:Construction,
  {06a39b93-3123-4a61-9beb-80738762e3a7}, !- Handle
  ASHRAE 189.1-2009 ExtWall Mass ClimateZone 3, !- Name
  ,                                       !- Surface Rendering Name
  {5a5cc154-7a5e-474b-b18b-18b0bbc4f40a}, !- Layer 1
  {11abdf02-ffe9-4ee2-ac61-a29004f12ae5}, !- Layer 2
  {90f38b57-f6cb-4e8a-be34-5903ae7116a3}, !- Layer 3
  {f88fb0ba-1c02-4058-a087-dc77aa9d3762}; !- Layer 4

OS:StandardsInformation:Construction,
  {8371ed71-a346-4726-bdaf-877226ec1cac}, !- Handle
  {06a39b93-3123-4a61-9beb-80738762e3a7}, !- Construction Name
  ExteriorWall,                           !- Intended Surface Type
  Mass;                                   !- Standards Construction Type

OS:Material,
  {90f38b57-f6cb-4e8a-be34-5903ae7116a3}, !- Handle
  Wall Insulation [36],                   !- Name
  MediumRough,                            !- Roughness
  0.0565999999999999,                     !- Thickness {m}
  0.0432,                                 !- Conductivity {W/m-K}
  91,                                     !- Density {kg/m3}
  836.999999999999,                       !- Specific Heat {J/kg-K}
  0.9,                                    !- Thermal Absorptance
  0.5,                                    !- Solar Absorptance
  0.5;                                    !- Visible Absorptance

OS:Construction,
  {ada90aed-cec0-4ebf-aa01-d7dda9d4b4e9}, !- Handle
  ASHRAE 189.1-2009 ExtWall Mass ClimateZone 4, !- Name
  ,                                       !- Surface Rendering Name
  {5a5cc154-7a5e-474b-b18b-18b0bbc4f40a}, !- Layer 1
  {11abdf02-ffe9-4ee2-ac61-a29004f12ae5}, !- Layer 2
  {89fe37a9-9182-4e14-ba8b-2cb416a061a4}, !- Layer 3
  {f88fb0ba-1c02-4058-a087-dc77aa9d3762}; !- Layer 4

OS:StandardsInformation:Construction,
  {2ae058d5-fe02-43f8-925a-87c597df2224}, !- Handle
  {ada90aed-cec0-4ebf-aa01-d7dda9d4b4e9}, !- Construction Name
  ExteriorWall,                           !- Intended Surface Type
  Mass;                                   !- Standards Construction Type

OS:Material,
  {89fe37a9-9182-4e14-ba8b-2cb416a061a4}, !- Handle
  Wall Insulation [37],                   !- Name
  MediumRough,                            !- Roughness
  0.0680999999999999,                     !- Thickness {m}
  0.0432,                                 !- Conductivity {W/m-K}
  91,                                     !- Density {kg/m3}
  836.999999999999,                       !- Specific Heat {J/kg-K}
  0.9,                                    !- Thermal Absorptance
  0.5,                                    !- Solar Absorptance
  0.5;                                    !- Visible Absorptance

OS:Construction,
  {5813d772-58fa-41d3-80de-0b8d0187199d}, !- Handle
  ASHRAE 189.1-2009 ExtWall Mass ClimateZone 5, !- Name
  ,                                       !- Surface Rendering Name
  {5a5cc154-7a5e-474b-b18b-18b0bbc4f40a}, !- Layer 1
  {11abdf02-ffe9-4ee2-ac61-a29004f12ae5}, !- Layer 2
  {36c69384-dad4-4174-8ffc-5170ef764dcc}, !- Layer 3
  {f88fb0ba-1c02-4058-a087-dc77aa9d3762}; !- Layer 4

OS:StandardsInformation:Construction,
  {a664b3e4-492a-491f-9438-ebe754c7ae6e}, !- Handle
  {5813d772-58fa-41d3-80de-0b8d0187199d}, !- Construction Name
  ExteriorWall,                           !- Intended Surface Type
  Mass;                                   !- Standards Construction Type

OS:Material,
  {36c69384-dad4-4174-8ffc-5170ef764dcc}, !- Handle
  Wall Insulation [40],                   !- Name
  MediumRough,                            !- Roughness
  0.0793999999999999,                     !- Thickness {m}
  0.0432,                                 !- Conductivity {W/m-K}
  91,                                     !- Density {kg/m3}
  836.999999999999,                       !- Specific Heat {J/kg-K}
  0.9,                                    !- Thermal Absorptance
  0.5,                                    !- Solar Absorptance
  0.5;                                    !- Visible Absorptance

OS:Construction,
  {bc17c792-cf30-4268-895f-e031cdafb033}, !- Handle
  ASHRAE 189.1-2009 ExtWall Mass ClimateZone 6, !- Name
  ,                                       !- Surface Rendering Name
  {5a5cc154-7a5e-474b-b18b-18b0bbc4f40a}, !- Layer 1
  {11abdf02-ffe9-4ee2-ac61-a29004f12ae5}, !- Layer 2
  {7cb94ca3-3131-40f7-a91b-008a3d77dc0e}, !- Layer 3
  {f88fb0ba-1c02-4058-a087-dc77aa9d3762}; !- Layer 4

OS:StandardsInformation:Construction,
  {1a494de6-d065-47c1-812f-b499d159ba19}, !- Handle
  {bc17c792-cf30-4268-895f-e031cdafb033}, !- Construction Name
  ExteriorWall,                           !- Intended Surface Type
  Mass;                                   !- Standards Construction Type

OS:Material,
  {7cb94ca3-3131-40f7-a91b-008a3d77dc0e}, !- Handle
  Wall Insulation [42],                   !- Name
  MediumRough,                            !- Roughness
  0.0913999999999999,                     !- Thickness {m}
  0.0432,                                 !- Conductivity {W/m-K}
  91,                                     !- Density {kg/m3}
  836.999999999999,                       !- Specific Heat {J/kg-K}
  0.9,                                    !- Thermal Absorptance
  0.5,                                    !- Solar Absorptance
  0.5;                                    !- Visible Absorptance

OS:Construction,
  {e27f5b32-4caf-429c-a2a5-f5d6012ab37e}, !- Handle
  ASHRAE 189.1-2009 ExtWall Mass ClimateZone 7-8, !- Name
  ,                                       !- Surface Rendering Name
  {5a5cc154-7a5e-474b-b18b-18b0bbc4f40a}, !- Layer 1
  {11abdf02-ffe9-4ee2-ac61-a29004f12ae5}, !- Layer 2
  {8eb6fdb8-aa3c-4f70-86ca-0636e68021e2}, !- Layer 3
  {f88fb0ba-1c02-4058-a087-dc77aa9d3762}; !- Layer 4

OS:StandardsInformation:Construction,
  {5bfc1f8e-e7b5-472a-aed4-04b497df12fb}, !- Handle
  {e27f5b32-4caf-429c-a2a5-f5d6012ab37e}, !- Construction Name
  ExteriorWall,                           !- Intended Surface Type
  Mass;                                   !- Standards Construction Type

OS:Material,
  {8eb6fdb8-aa3c-4f70-86ca-0636e68021e2}, !- Handle
  Wall Insulation [44],                   !- Name
  MediumRough,                            !- Roughness
  0.1104,                                 !- Thickness {m}
  0.0432,                                 !- Conductivity {W/m-K}
  91,                                     !- Density {kg/m3}
  836.999999999999,                       !- Specific Heat {J/kg-K}
  0.9,                                    !- Thermal Absorptance
  0.5,                                    !- Solar Absorptance
  0.5;                                    !- Visible Absorptance

OS:Construction,
  {1b2d0abf-b04f-40bc-9589-2c96a0c3b270}, !- Handle
  ASHRAE 189.1-2009 ExtWall Mass ClimateZone alt-res 1, !- Name
  ,                                       !- Surface Rendering Name
  {5a5cc154-7a5e-474b-b18b-18b0bbc4f40a}, !- Layer 1
  {11abdf02-ffe9-4ee2-ac61-a29004f12ae5}, !- Layer 2
  {b70e2629-6b08-42eb-9112-902ff22d7e6f}, !- Layer 3
  {f88fb0ba-1c02-4058-a087-dc77aa9d3762}; !- Layer 4

OS:StandardsInformation:Construction,
  {b26af1db-54a4-449e-b460-c2a719789a36}, !- Handle
  {1b2d0abf-b04f-40bc-9589-2c96a0c3b270}, !- Construction Name
  ExteriorWall,                           !- Intended Surface Type
  Mass;                                   !- Standards Construction Type

OS:Construction,
  {3ba8a2bc-4d13-465f-8eaa-618a7f944885}, !- Handle
  ASHRAE 189.1-2009 ExtWall Mass ClimateZone alt-res 2, !- Name
  ,                                       !- Surface Rendering Name
  {5a5cc154-7a5e-474b-b18b-18b0bbc4f40a}, !- Layer 1
  {11abdf02-ffe9-4ee2-ac61-a29004f12ae5}, !- Layer 2
  {90f38b57-f6cb-4e8a-be34-5903ae7116a3}, !- Layer 3
  {f88fb0ba-1c02-4058-a087-dc77aa9d3762}; !- Layer 4

OS:StandardsInformation:Construction,
  {c3dc70a9-8cde-4130-9f02-fb0eee83ce49}, !- Handle
  {3ba8a2bc-4d13-465f-8eaa-618a7f944885}, !- Construction Name
  ExteriorWall,                           !- Intended Surface Type
  Mass;                                   !- Standards Construction Type

OS:Construction,
  {4de6d105-d681-4d38-acdf-efbd691ba5b0}, !- Handle
  ASHRAE 189.1-2009 ExtWall Mass ClimateZone alt-res 3, !- Name
  ,                                       !- Surface Rendering Name
  {5a5cc154-7a5e-474b-b18b-18b0bbc4f40a}, !- Layer 1
  {11abdf02-ffe9-4ee2-ac61-a29004f12ae5}, !- Layer 2
  {89fe37a9-9182-4e14-ba8b-2cb416a061a4}, !- Layer 3
  {f88fb0ba-1c02-4058-a087-dc77aa9d3762}; !- Layer 4

OS:StandardsInformation:Construction,
  {5a2f6f68-3e29-4481-82d1-5578cb7ff7a8}, !- Handle
  {4de6d105-d681-4d38-acdf-efbd691ba5b0}, !- Construction Name
  ExteriorWall,                           !- Intended Surface Type
  Mass;                                   !- Standards Construction Type

OS:Construction,
  {a4d24835-de64-4079-91cd-201b1777ad60}, !- Handle
  ASHRAE 189.1-2009 ExtWall Mass ClimateZone alt-res 4, !- Name
  ,                                       !- Surface Rendering Name
  {5a5cc154-7a5e-474b-b18b-18b0bbc4f40a}, !- Layer 1
  {11abdf02-ffe9-4ee2-ac61-a29004f12ae5}, !- Layer 2
  {36c69384-dad4-4174-8ffc-5170ef764dcc}, !- Layer 3
  {f88fb0ba-1c02-4058-a087-dc77aa9d3762}; !- Layer 4

OS:StandardsInformation:Construction,
  {f74d408e-dac9-4452-a93b-479ff049095b}, !- Handle
  {a4d24835-de64-4079-91cd-201b1777ad60}, !- Construction Name
  ExteriorWall,                           !- Intended Surface Type
  Mass;                                   !- Standards Construction Type

OS:Construction,
  {e2ccab52-59bc-4516-88db-5cee47d3ad44}, !- Handle
  ASHRAE 189.1-2009 ExtWall Mass ClimateZone alt-res 5, !- Name
  ,                                       !- Surface Rendering Name
  {5a5cc154-7a5e-474b-b18b-18b0bbc4f40a}, !- Layer 1
  {11abdf02-ffe9-4ee2-ac61-a29004f12ae5}, !- Layer 2
  {7cb94ca3-3131-40f7-a91b-008a3d77dc0e}, !- Layer 3
  {f88fb0ba-1c02-4058-a087-dc77aa9d3762}; !- Layer 4

OS:StandardsInformation:Construction,
  {ec5d9446-16b3-4088-958e-a449e3b3633d}, !- Handle
  {e2ccab52-59bc-4516-88db-5cee47d3ad44}, !- Construction Name
  ExteriorWall,                           !- Intended Surface Type
  Mass;                                   !- Standards Construction Type

OS:Construction,
  {35aef639-44c9-4762-9a8c-4f1451f1e30c}, !- Handle
  ASHRAE 189.1-2009 ExtWall Mass ClimateZone alt-res 6, !- Name
  ,                                       !- Surface Rendering Name
  {5a5cc154-7a5e-474b-b18b-18b0bbc4f40a}, !- Layer 1
  {11abdf02-ffe9-4ee2-ac61-a29004f12ae5}, !- Layer 2
  {8eb6fdb8-aa3c-4f70-86ca-0636e68021e2}, !- Layer 3
  {f88fb0ba-1c02-4058-a087-dc77aa9d3762}; !- Layer 4

OS:StandardsInformation:Construction,
  {5779a276-d277-40b1-8cb8-30ceecd47359}, !- Handle
  {35aef639-44c9-4762-9a8c-4f1451f1e30c}, !- Construction Name
  ExteriorWall,                           !- Intended Surface Type
  Mass;                                   !- Standards Construction Type

OS:Construction,
  {31b37893-578f-4399-aaf4-e3a2adc66c1e}, !- Handle
  ASHRAE 189.1-2009 ExtWall Mass ClimateZone alt-res 7, !- Name
  ,                                       !- Surface Rendering Name
  {5a5cc154-7a5e-474b-b18b-18b0bbc4f40a}, !- Layer 1
  {11abdf02-ffe9-4ee2-ac61-a29004f12ae5}, !- Layer 2
  {8eb6fdb8-aa3c-4f70-86ca-0636e68021e2}, !- Layer 3
  {f88fb0ba-1c02-4058-a087-dc77aa9d3762}; !- Layer 4

OS:StandardsInformation:Construction,
  {0784a54b-f974-4455-9f53-406b803ea49a}, !- Handle
  {31b37893-578f-4399-aaf4-e3a2adc66c1e}, !- Construction Name
  ExteriorWall,                           !- Intended Surface Type
  Mass;                                   !- Standards Construction Type

OS:Construction,
  {2dc32bad-9bee-4a5e-ba0c-19dd710cef03}, !- Handle
  ASHRAE 189.1-2009 ExtWall Mass ClimateZone alt-res 8, !- Name