
OS:Version,
  {b4b7a0c3-1af0-48f7-aed1-f58c5fc7f19a}, !- Handle
  1.2.3;                                  !- Version Identifier

OS:Construction,
  {5ab86882-37f2-4959-8187-74202b5b2e42}, !- Handle
  ASHRAE 189.1-2009 AtticFloor ClimateZone 1-8, !- Name
  ,                                       !- Surface Rendering Name
  {f8cc3739-05bf-4474-a5d6-66960bba1e0c}, !- Layer 1
  {5755eff2-625d-44f4-b1f6-b644719560db}, !- Layer 2
  {f8cc3739-05bf-4474-a5d6-66960bba1e0c}; !- Layer 3

OS:StandardsInformation:Construction,
  {023f562b-c216-4683-a94d-ab2944a438bd}, !- Handle
  {5ab86882-37f2-4959-8187-74202b5b2e42}, !- Construction Name
  AtticFloor,                             !- Intended Surface Type
  WoodFramed;                             !- Standards Construction Type

OS:Material,
  {f8cc3739-05bf-4474-a5d6-66960bba1e0c}, !- Handle
  1/2IN Gypsum,                           !- Name
  Smooth,                                 !- Roughness
  0.0127,                                 !- Thickness {m}
  0.16,                                   !- Conductivity {W/m-K}
  784.9,                                  !- Density {kg/m3}
  830.000000000001,                       !- Specific Heat {J/kg-K}
  0.9,                                    !- Thermal Absorptance
  0.92,                                   !- Solar Absorptance
  0.92;                                   !- Visible Absorptance

OS:Material,
  {5755eff2-625d-44f4-b1f6-b644719560db}, !- Handle
  AtticFloor Insulation,                  !- Name
  MediumRough,                            !- Roughness
  0.2379,                                 !- Thickness {m}
  0.049,                                  !- Conductivity {W/m-K}
  265,                                    !- Density {kg/m3}
  836.800000000001,                       !- Specific Heat {J/kg-K}
  0.9,                                    !- Thermal Absorptance
  0.7,                                    !- Solar Absorptance
  0.7;                                    !- Visible Absorptance

OS:Construction,
  {395ec7a2-2d6f-419f-9fdb-db014ae35044}, !- Handle
  ASHRAE 189.1-2009 ExtRoof IEAD ClimateZone 1, !- Name
  ,                                       !- Surface Rendering Name
  {9213b4af-8661-4f3c-a114-1d3fc7efde7e}, !- Layer 1
  {252cb76c-2e77-46d1-bd85-7a861f76bc6c}, !- Layer 2
  {48ab6df6-9035-4c6c-976a-24a9c7ecfc79}; !- Layer 3

OS:StandardsInformation:Construction,
  {d2252c1d-fc40-4b5c-b18d-3920766c937a}, !- Handle
  {395ec7a2-2d6f-419f-9fdb-db014ae35044}, !- Construction Name
  ExteriorRoof,                           !- Intended Surface Type
  IEAD;                                   !- Standards Construction Type

OS:Material,
  {9213b4af-8661-4f3c-a114-1d3fc7efde7e}, !- Handle
  Roof Membrane,                          !- Name
  VeryRough,                              !- Roughness
  0.0095,                                 !- Thickness {m}
  0.16,                                   !- Conductivity {W/m-K}
  1121.29,                                !- Density {kg/m3}
  1460,                                   !- Specific Heat {J/kg-K}
  0.9,                                    !- Thermal Absorptance
  0.7,                                    !- Solar Absorptance
  0.7;                                    !- Visible Absorptance

OS:Material,
  {252cb76c-2e77-46d1-bd85-7a861f76bc6c}, !- Handle
  Roof Insulation [18],                   !- Name
  MediumRough,                            !- Roughness
  0.1693,                                 !- Thickness {m}
  0.049,                                  !- Conductivity {W/m-K}
  265,                                    !- Density {kg/m3}
  836.800000000001,                       !- Specific Heat {J/kg-K}
  0.9,                                    !- Thermal Absorptance
  0.7,                                    !- Solar Absorptance
  0.7;                                    !- Visible Absorptance

OS:Material,
  {48ab6df6-9035-4c6c-976a-24a9c7ecfc79}, !- Handle
  Metal Decking,                          !- Name
  MediumSmooth,                           !- Roughness
  0.0015,                                 !- Thickness {m}
  45.006,                                 !- Conductivity {W/m-K}
  7680,                                   !- Density {kg/m3}
  418.4,                                  !- Specific Heat {J/kg-K}
  0.9,                                    !- Thermal Absorptance
  0.7,                                    !- Solar Absorptance
  0.3;                                    !- Visible Absorptance

OS:Construction,
  {e9712070-8056-455e-87b0-6f9285a80720}, !- Handle
  ASHRAE 189.1-2009 ExtRoof IEAD ClimateZone 2-5, !- Name
  ,                                       !- Surface Rendering Name
  {9213b4af-8661-4f3c-a114-1d3fc7efde7e}, !- Layer 1
  {fdc36cdf-075e-4ff6-a6fb-30aeae27ec79}, !- Layer 2
  {48ab6df6-9035-4c6c-976a-24a9c7ecfc79}; !- Layer 3

OS:StandardsInformation:Construction,
  {49dce462-7d79-4f1c-8f29-ff81ef6f7fa6}, !- Handle
  {e9712070-8056-455e-87b0-6f9285a80720}, !- Construction Name
  ExteriorRoof,                           !- Intended Surface Type
  IEAD;                                   !- Standards Construction Type

OS:Material,
  {fdc36cdf-075e-4ff6-a6fb-30aeae27ec79}, !- Handle
  Roof Insulation [21],                   !- Name
  MediumRough,                            !- Roughness
  0.2105,                                 !- Thickness {m}
  0.049,                                  !- Conductivity {W/m-K}
  265,                                    !- Density {kg/m3}
  836.800000000001,                       !- Specific Heat {J/kg-K}
  0.9,                                    !- Thermal Absorptance
  0.7,                                    !- Solar Absorptance
  0.7;                                    !- Visible Absorptance

OS:Construction,
  {06d5d58f-a135-4c2b-8c21-48d60436744a}, !- Handle
  ASHRAE 189.1-2009 ExtRoof IEAD ClimateZone 6, !- Name
  ,                                       !- Surface Rendering Name
  {9213b4af-8661-4f3c-a114-1d3fc7efde7e}, !- Layer 1
  {a9a4c186-7bb6-4421-8c6f-5d7a0d11d72b}, !- Layer 2
  {48ab6df6-9035-4c6c-976a-24a9c7ecfc79}; !- Layer 3

OS:StandardsInformation:Construction,
  {a4833bca-f382-4270-9140-7af2cc89aadc}, !- Handle
  {06d5d58f-a135-4c2b-8c21-48d60436744a}, !- Construction Name
  ExteriorRoof,                           !- Intended Surface Type
  IEAD;                                   !- Standards Construction Type

OS:Material,
  {a9a4c186-7bb6-4421-8c6f-5d7a0d11d72b}, !- Handle
  Roof Insulation [24],                   !- Name
  MediumRough,                            !- Roughness
  0.260100000000001,                      !- Thickness {m}
  0.049,                                  !- Conductivity {W/m-K}
  265,                                    !- Density {kg/m3}
  836.800000000001,                       !- Specific Heat {J/kg-K}
  0.9,                                    !- Thermal Absorptance
  0.7,                                    !- Solar Absorptance
  0.7;                                    !- Visible Absorptance

OS:Construction,
  {999e1e05-01d8-4c17-8fc6-3c922e1a33b5}, !- Handle
  ASHRAE 189.1-2009 ExtRoof IEAD ClimateZone 7-8, !- Name
  ,                                       !- Surface Rendering Name
  {9213b4af-8661-4f3c-a114-1d3fc7efde7e}, !- Layer 1
  {b862c26b-a24a-4d01-88e6-9c296f01190b}, !- Layer 2
  {48ab6df6-9035-4c6c-976a-24a9c7ecfc79}; !- Layer 3

OS:StandardsInformation:Construction,
  {69569613-840a-4e97-b01e-1d72f5caee4b}, !- Handle
  {999e1e05-01d8-4c17-8fc6-3c922e1a33b5}, !- Construction Name
  ExteriorRoof,                           !- Intended Surface Type
  IEAD;                                   !- Standards Construction Type

OS:Material,
  {b862c26b-a24a-4d01-88e6-9c296f01190b}, !- Handle
  Roof Insulation [26],                   !- Name
  MediumRough,                            !- Roughness
  0.2941,                                 !- Thickness {m}
  0.049,                                  !- Conductivity {W/m-K}
  265,                                    !- Density {kg/m3}
  836.800000000001,                       !- Specific Heat {J/kg-K}
  0.9,                                    !- Thermal Absorptance
  0.7,                                    !- Solar Absorptance
  0.7;                                    !- Visible Absorptance

OS:Construction,
  {9415b69a-eb12-4c53-8d75-edfb36968374}, !- Handle
  ASHRAE 189.1-2009 ExtRoof Metal ClimateZone 1, !- Name
  ,                                       !- Surface Rendering Name
  {5730e5c1-1ff9-48a7-aca8-f66f38662034}, !- Layer 1
  {eb970349-55ee-4ab9-9352-a0e5314e04c8}; !- Layer 2

OS:StandardsInformation:Construction,
  {113d6d42-61ea-48c3-b8b7-4b36c304fffc}, !- Handle
  {9415b69a-eb12-4c53-8d75-edfb36968374}, !- Construction Name
  ExteriorRoof,                           !- Intended Surface Type
  Metal;                                  !- Standards Construction Type

OS:Material,
  {5730e5c1-1ff9-48a7-aca8-f66f38662034}, !- Handle
  Metal Roofing,                          !- Name
  MediumSmooth,                           !- Roughness
  0.0015,                                 !- Thickness {m}
  45.006,                                 !- Conductivity {W/m-K}
  7680,                                   !- Density {kg/m3}
  418.4,                                  !- Specific Heat {J/kg-K}
  0.9,                                    !- Thermal Absorptance
  0.3,                                    !- Solar Absorptance
  0.3;                                    !- Visible Absorptance

OS:Material,
  {eb970349-55ee-4ab9-9352-a0e5314e04c8}, !- Handle
  Roof Insulation [19],                   !- Name
  MediumRough,                            !- Roughness
  0.1868,                                 !- Thickness {m}
  0.049,                                  !- Conductivity {W/m-K}
  265,                                    !- Density {kg/m3}
  836.800000000001,                       !- Specific Heat {J/kg-K}
  0.9,                                    !- Thermal Absorptance
  0.7,                                    !- Solar Absorptance
  0.7;                                    !- Visible Absorptance

OS:Construction,
  {31f5b8fc-5073-446d-b6bb-6a435f06954e}, !- Handle
  ASHRAE 189.1-2009 ExtRoof Metal ClimateZone 2-5, !- Name
  ,                                       !- Surface Rendering Name
  {5730e5c1-1ff9-48a7-aca8-f66f38662034}, !- Layer 1
  {ebc81182-8053-4a46-91e1-2f3519df93b1}; !- Layer 2

OS:StandardsInformation:Construction,
  {9da73c34-90e7-4bc9-b267-1bc503aa6a60}, !- Handle
  {31f5b8fc-5073-446d-b6bb-6a435f06954e}, !- Construction Name
  ExteriorRoof,                           !- Intended Surface Type
  Metal;                                  !- Standards Construction Type

OS:Material,
  {ebc81182-8053-4a46-91e1-2f3519df93b1}, !- Handle
  Roof Insulation [22],                   !- Name
  MediumRough,                            !- Roughness
  0.2358,                                 !- Thickness {m}
  0.049,                                  !- Conductivity {W/m-K}
  265,                                    !- Density {kg/m3}
  836.800000000001,                       !- Specific Heat {J/kg-K}
  0.9,                                    !- Thermal Absorptance
  0.7,                                    !- Solar Absorptance
  0.7;                                    !- Visible Absorptance

OS:Construction,
  {e966a1f6-991c-4ce1-be44-3e4eb0341a75}, !- Handle
  ASHRAE 189.1-2009 ExtRoof Metal ClimateZone 6, !- Name
  ,                                       !- Surface Rendering Name
  {5730e5c1-1ff9-48a7-aca8-f66f38662034}, !- Layer 1
  {b6990eaa-cfe3-4928-9444-663befd04f44}; !- Layer 2

OS:StandardsInformation:Construction,
  {abd6feea-a289-4e4f-b592-6bdc77f0f16e}, !- Handle
  {e966a1f6-991c-4ce1-be44-3e4eb0341a75}, !- Construction Name
  ExteriorRoof,                           !- Intended Surface Type
  Metal;                                  !- Standards Construction Type

OS:Material,
  {b6990eaa-cfe3-4928-9444-663befd04f44}, !- Handle
  Roof Insulation [25],                   !- Name
  MediumRough,                            !- Roughness
  0.263,                                  !- Thickness {m}
  0.049,                                  !- Conductivity {W/m-K}
  265,                                    !- Density {kg/m3}
  836.800000000001,                       !- Specific Heat {J/kg-K}
  0.9,                                    !- Thermal Absorptance
  0.7,                                    !- Solar Absorptance
  0.7;                                    !- Visible Absorptance

OS:Construction,
  {ef111225-c597-443c-b2df-45fb8007573d}, !- Handle
  ASHRAE 189.1-2009 ExtRoof Metal ClimateZone 7-8, !- Name
  ,                                       !- Surface Rendering Name
  {5730e5c1-1ff9-48a7-aca8-f66f38662034}, !- Layer 1
  {1ff427c2-79e3-4197-bc1f-b9c9a0efa5d1}; !- Layer 2

OS:StandardsInformation:Construction,
  {a6722e80-96d3-44da-9b68-9e63afb4c197}, !- Handle
  {ef111225-c597-443c-b2df-45fb8007573d}, !- Construction Name
  ExteriorRoof,                           !- Intended Surface Type
  Metal;                                  !- Standards Construction Type

OS:Material,
  {1ff427c2-79e3-4197-bc1f-b9c9a0efa5d1}, !- Handle
  Roof Insulation [27],                   !- Name
  MediumRough,                            !- Roughness
  0.297000000000001,                      !- Thickness {m}
  0.049,                                  !- Conductivity {W/m-K}
  265,                                    !- Density {kg/m3}
  836.800000000001,                       !- Specific Heat {J/kg-K}
  0.9,                                    !- Thermal Absorptance
  0.7,                                    !- Solar Absorptance
  0.7;                                    !- Visible Absorptance

OS:Construction,
  {2e4ae1bc-99c6-4f49-afab-5fb0563d424a}, !- Handle
  ASHRAE 189.1-2009 ExtWall Mass ClimateZone 1, !- Name
  ,                                       !- Surface Rendering Name
  {66d16163-2577-4be3-8aa0-67714fc19d77}, !- Layer 1
  {afd56773-96e8-4b8f-910d-f1baadbd72af}, !- Layer 2
  {63c0cf2d-639d-4750-92d9-1867d5289ccc}, !- Layer 3
  {f8cc3739-05bf-4474-a5d6-66960bba1e0c}; !- Layer 4

OS:StandardsInformation:Construction,
  {da820ba7-c49b-4675-bf5f-7ec9dd826b81}, !- Handle
  {2e4ae1bc-99c6-4f49-afab-5fb0563d424a}, !- Construction Name
  ExteriorWall,                           !- Intended Surface Type
  Mass;                                   !- Standards Construction Type

OS:Material,
  {66d16163-2577-4be3-8aa0-67714fc19d77}, !- Handle
  1IN Stucco,                             !- Name
  Smooth,                                 !- Roughness
  0.0253,                                 !- Thickness {m}
  0.691799999999999,                      !- Conductivity {W/m-K}
  1858,                                   !- Density {kg/m3}
  836.999999999999,                       !- Specific Heat {J/kg-K}
  0.9,                                    !- Thermal Absorptance
  0.92,                                   !- Solar Absorptance
  0.92;                                   !- Visible Absorptance

OS:Material,
  {afd56773-96e8-4b8f-910d-f1baadbd72af}, !- Handle
  8IN Concrete HW,                        !- Name
  MediumRough,                            !- Roughness
  0.2033,                                 !- Thickness {m}
  1.72959999999999,                       !- Conductivity {W/m-K}
  2242.99999999999,                       !- Density {kg/m3}
  836.999999999999,                       !- Specific Heat {J/kg-K}
  0.9,                                    !- Thermal Absorptance
  0.65,                                   !- Solar Absorptance
  0.65;                                   !- Visible Absorptance

OS:Material,
  {63c0cf2d-639d-4750-92d9-1867d5289ccc}, !- Handle
  Wall Insulation [31],                   !- Name
  MediumRough,                            !- Roughness
  0.0337000000000001,                     !- Thickness {m}
  0.0432,                                 !- Conductivity {W/m-K}
  91,                                     !- Density {kg/m3}
  836.999999999999,                       !- Specific Heat {J/kg-K}
  0.9,                                    !- Thermal Absorptance
  0.5,                                    !- Solar Absorptance
  0.5;                                    !- Visible Absorptance

OS:Construction,
  {bd74c249-4f55-4d1b-815d-dcbf693bec3d}, !- Handle
  ASHRAE 189.1-2009 ExtWall Mass ClimateZone 2, !- Name
  ,                                       !- Surface Rendering Name
  {66d16163-2577-4be3-8aa0-67714fc19d77}, !- Layer 1
  {afd56773-96e8-4b8f-910d-f1baadbd72af}, !- Layer 2
  {70033548-fcb9-4ced-b202-dc6d8ca81447}, !- Layer 3
  {f8cc3739-05bf-4474-a5d6-66960bba1e0c}; !- Layer 4

OS:StandardsInformation:Construction,
  {2d2b2a2a-a5e0-49bb-afa3-544f4221cd6e}, !- Handle
  {bd74c249-4f55-4d1b-815d-dcbf693bec3d}, !- Construction Name
  ExteriorWall,                           !- Intended Surface Type
  Mass;                                   !- Standards Construction Type

OS:Material,
  {70033548-fcb9-4ced-b202-dc6d8ca81447}, !- Handle
  Wall Insulation [35],                   !- Name
  MediumRough,                            !- Roughness
  0.0452,                                 !- Thickness {m}
  0.0432,                                 !- Conductivity {W/m-K}
  91,                                     !- Density {kg/m3}
  836.999999999999,                       !- Specific Heat {J/kg-K}
  0.9,                                    !- Thermal Absorptance
  0.5,                                    !- Solar Absorptance
  0.5;                                    !- Visible Absorptance

OS:Construction,
  {e05ef78a-657d-49a1-aa01-835eea333592}, !- Handle
  ASHRAE 189.1-2009 ExtWall Mass ClimateZone 3, !- Name
  ,                                       !- Surface Rendering Name
  {66d16163-2577-4be3-8aa0-67714fc19d77}, !- Layer 1
  {afd56773-96e8-4b8f-910d-f1baadbd72af}, !- Layer 2
  {15f7a934-f082-499b-8c99-3f70f30cfcb4}, !- Layer 3
  {f8cc3739-05bf-4474-a5d6-66960bba1e0c}; !- Layer 4

OS:StandardsInformation:Construction,
  {14406540-2f72-44ce-94e4-a62799262a2f}, !- Handle
  {e05ef78a-657d-49a1-aa01-835eea333592}, !- Construction Name
  ExteriorWall,                           !- Intended Surface Type
  Mass;                                   !- Standards Construction Type

OS:Material,
  {15f7a934-f082-499b-8c99-3f70f30cfcb4}, !- Handle
  Wall Insulation [36],                   !- Name
  MediumRough,                            !- Roughness
  0.0565999999999999,                     !- Thickness {m}
  0.0432,                                 !- Conductivity {W/m-K}
  91,                                     !- Density {kg/m3}
  836.999999999999,                       !- Specific Heat {J/kg-K}
  0.9,                                    !- Thermal Absorptance
  0.5,                                    !- Solar Absorptance
  0.5;                                    !- Visible Absorptance

OS:Construction,
  {f51202e9-073f-4a40-a125-880b10613d86}, !- Handle
  ASHRAE 189.1-2009 ExtWall Mass ClimateZone 4, !- Name
  ,                                       !- Surface Rendering Name
  {66d16163-2577-4be3-8aa0-67714fc19d77}, !- Layer 1
  {afd56773-96e8-4b8f-910d-f1baadbd72af}, !- Layer 2
  {e29a5775-25e4-484e-8cd6-09cffb483666}, !- Layer 3
  {f8cc3739-05bf-4474-a5d6-66960bba1e0c}; !- Layer 4

OS:StandardsInformation:Construction,
  {1611023b-427c-4125-bf76-eebb430ad061}, !- Handle
  {f51202e9-073f-4a40-a125-880b10613d86}, !- Construction Name
  ExteriorWall,                           !- Intended Surface Type
  Mass;                                   !- Standards Construction Type

OS:Material,
  {e29a5775-25e4-484e-8cd6-09cffb483666}, !- Handle
  Wall Insulation [37],                   !- Name
  MediumRough,                            !- Roughness
  0.0680999999999999,                     !- Thickness {m}
  0.0432,                                 !- Conductivity {W/m-K}
  91,                                     !- Density {kg/m3}
  836.999999999999,                       !- Specific Heat {J/kg-K}
  0.9,                                    !- Thermal Absorptance
  0.5,                                    !- Solar Absorptance
  0.5;                                    !- Visible Absorptance

OS:Construction,
  {02249360-9ddb-4017-bef5-4b0e2639bde7}, !- Handle
  ASHRAE 189.1-2009 ExtWall Mass ClimateZone 5, !- Name
  ,                                       !- Surface Rendering Name
  {66d16163-2577-4be3-8aa0-67714fc19d77}, !- Layer 1
  {afd56773-96e8-4b8f-910d-f1baadbd72af}, !- Layer 2
  {31b16618-b0fe-4d46-b8c5-6ed3642dd926}, !- Layer 3
  {f8cc3739-05bf-4474-a5d6-66960bba1e0c}; !- Layer 4

OS:StandardsInformation:Construction,
  {7846b522-a486-418f-b739-06c56992083d}, !- Handle
  {02249360-9ddb-4017-bef5-4b0e2639bde7}, !- Construction Name
  ExteriorWall,                           !- Intended Surface Type
  Mass;                                   !- Standards Construction Type

OS:Material,
  {31b16618-b0fe-4d46-b8c5-6ed3642dd926}, !- Handle
  Wall Insulation [40],                   !- Name
  MediumRough,                            !- Roughness
  0.0793999999999999,                     !- Thickness {m}
  0.0432,                                 !- Conductivity {W/m-K}
  91,                                     !- Density {kg/m3}
  836.999999999999,                       !- Specific Heat {J/kg-K}
  0.9,                                    !- Thermal Absorptance
  0.5,                                    !- Solar Absorptance
  0.5;                                    !- Visible Absorptance

OS:Construction,
  {9b5a2f8c-489f-4257-bfd9-94f59a2e4592}, !- Handle
  ASHRAE 189.1-2009 ExtWall Mass ClimateZone 6, !- Name
  ,                                       !- Surface Rendering Name
  {66d16163-2577-4be3-8aa0-67714fc19d77}, !- Layer 1
  {afd56773-96e8-4b8f-910d-f1baadbd72af}, !- Layer 2
  {6c3459ca-d6be-4a32-86de-fe08ae7ff403}, !- Layer 3
  {f8cc3739-05bf-4474-a5d6-66960bba1e0c}; !- Layer 4

OS:StandardsInformation:Construction,
  {251be892-9e8b-492a-96de-541fae0ef09d}, !- Handle
  {9b5a2f8c-489f-4257-bfd9-94f59a2e4592}, !- Construction Name
  ExteriorWall,                           !- Intended Surface Type
  Mass;                                   !- Standards Construction Type

OS:Material,
  {6c3459ca-d6be-4a32-86de-fe08ae7ff403}, !- Handle
  Wall Insulation [42],                   !- Name
  MediumRough,                            !- Roughness
  0.0913999999999999,                     !- Thickness {m}
  0.0432,                                 !- Conductivity {W/m-K}
  91,                                     !- Density {kg/m3}
  836.999999999999,                       !- Specific Heat {J/kg-K}
  0.9,                                    !- Thermal Absorptance
  0.5,                                    !- Solar Absorptance
  0.5;                                    !- Visible Absorptance

OS:Construction,
  {9292ffd9-5aec-451a-9203-2e968f7b9755}, !- Handle
  ASHRAE 189.1-2009 ExtWall Mass ClimateZone 7-8, !- Name
  ,                                       !- Surface Rendering Name
  {66d16163-2577-4be3-8aa0-67714fc19d77}, !- Layer 1
  {afd56773-96e8-4b8f-910d-f1baadbd72af}, !- Layer 2
  {9786efc2-0dc5-407c-b805-156eb32ead6b}, !- Layer 3
  {f8cc3739-05bf-4474-a5d6-66960bba1e0c}; !- Layer 4

OS:StandardsInformation:Construction,
  {000a4fc7-40ce-4708-b9a3-f116af5173f6}, !- Handle
  {9292ffd9-5aec-451a-9203-2e968f7b9755}, !- Construction Name
  ExteriorWall,                           !- Intended Surface Type
  Mass;                                   !- Standards Construction Type

OS:Material,
  {9786efc2-0dc5-407c-b805-156eb32ead6b}, !- Handle
  Wall Insulation [44],                   !- Name
  MediumRough,                            !- Roughness
  0.1104,                                 !- Thickness {m}
  0.0432,                                 !- Conductivity {W/m-K}
  91,                                     !- Density {kg/m3}
  836.999999999999,                       !- Specific Heat {J/kg-K}
  0.9,                                    !- Thermal Absorptance
  0.5,                                    !- Solar Absorptance
  0.5;                                    !- Visible Absorptance

OS:Construction,
  {755661b0-30ec-4c8a-9d8a-6ff504633465}, !- Handle
  ASHRAE 189.1-2009 ExtWall Mass ClimateZone alt-res 1, !- Name
  ,                                       !- Surface Rendering Name
  {66d16163-2577-4be3-8aa0-67714fc19d77}, !- Layer 1
  {afd56773-96e8-4b8f-910d-f1baadbd72af}, !- Layer 2
  {70033548-fcb9-4ced-b202-dc6d8ca81447}, !- Layer 3
  {f8cc3739-05bf-4474-a5d6-66960bba1e0c}; !- Layer 4

OS:StandardsInformation:Construction,
  {58ee2a48-d69c-450a-9b8a-c107dcdcc641}, !- Handle
  {755661b0-30ec-4c8a-9d8a-6ff504633465}, !- Construction Name
  ExteriorWall,                           !- Intended Surface Type
  Mass;                                   !- Standards Construction Type

OS:Construction,
  {21c14662-6f66-4642-bdbd-01eb4385e1eb}, !- Handle
  ASHRAE 189.1-2009 ExtWall Mass ClimateZone alt-res 2, !- Name
  ,                                       !- Surface Rendering Name
  {66d16163-2577-4be3-8aa0-67714fc19d77}, !- Layer 1
  {afd56773-96e8-4b8f-910d-f1baadbd72af}, !- Layer 2
  {15f7a934-f082-499b-8c99-3f70f30cfcb4}, !- Layer 3
  {f8cc3739-05bf-4474-a5d6-66960bba1e0c}; !- Layer 4

OS:StandardsInformation:Construction,
  {b7cafb48-8222-4419-bea8-c672ba5c3852}, !- Handle
  {21c14662-6f66-4642-bdbd-01eb4385e1eb}, !- Construction Name
  ExteriorWall,                           !- Intended Surface Type
  Mass;                                   !- Standards Construction Type

OS:Construction,
  {518f1fb7-942b-4caf-ab6f-e84e3ddc7223}, !- Handle
  ASHRAE 189.1-2009 ExtWall Mass ClimateZone alt-res 3, !- Name
  ,                                       !- Surface Rendering Name
  {66d16163-2577-4be3-8aa0-67714fc19d77}, !- Layer 1
  {afd56773-96e8-4b8f-910d-f1baadbd72af}, !- Layer 2
  {e29a5775-25e4-484e-8cd6-09cffb483666}, !- Layer 3
  {f8cc3739-05bf-4474-a5d6-66960bba1e0c}; !- Layer 4

OS:StandardsInformation:Construction,
  {6551c643-5d1b-4045-bfe0-4d9e7c7eab5e}, !- Handle
  {518f1fb7-942b-4caf-ab6f-e84e3ddc7223}, !- Construction Name
  ExteriorWall,                           !- Intended Surface Type
  Mass;                                   !- Standards Construction Type

OS:Construction,
  {088d240e-cb30-4f03-b6c8-b6dfe760f9a8}, !- Handle
  ASHRAE 189.1-2009 ExtWall Mass ClimateZone alt-res 4, !- Name
  ,                                       !- Surface Rendering Name
  {66d16163-2577-4be3-8aa0-67714fc19d77}, !- Layer 1
  {afd56773-96e8-4b8f-910d-f1baadbd72af}, !- Layer 2
  {31b16618-b0fe-4d46-b8c5-6ed3642dd926}, !- Layer 3
  {f8cc3739-05bf-4474-a5d6-66960bba1e0c}; !- Layer 4

OS:StandardsInformation:Construction,
  {3fd96c7b-d5eb-444d-a5f3-14ac02c31efa}, !- Handle
  {088d240e-cb30-4f03-b6c8-b6dfe760f9a8}, !- Construction Name
  ExteriorWall,                           !- Intended Surface Type
  Mass;                                   !- Standards Construction Type

OS:Construction,
  {3cc2eb58-35cb-46ce-9768-68ae2792725e}, !- Handle
  ASHRAE 189.1-2009 ExtWall Mass ClimateZone alt-res 5, !- Name
  ,                                       !- Surface Rendering Name
  {66d16163-2577-4be3-8aa0-67714fc19d77}, !- Layer 1
  {afd56773-96e8-4b8f-910d-f1baadbd72af}, !- Layer 2
  {6c3459ca-d6be-4a32-86de-fe08ae7ff403}, !- Layer 3
  {f8cc3739-05bf-4474-a5d6-66960bba1e0c}; !- Layer 4

OS:StandardsInformation:Construction,
  {627207d7-a94b-4e30-993d-f1fa4a840362}, !- Handle
  {3cc2eb58-35cb-46ce-9768-68ae2792725e}, !- Construction Name
  ExteriorWall,                           !- Intended Surface Type
  Mass;                                   !- Standards Construction Type

OS:Construction,
  {61bf9023-757e-42ce-b4da-122d2d2cfdc1}, !- Handle
  ASHRAE 189.1-2009 ExtWall Mass ClimateZone alt-res 6, !- Name
  ,                                       !- Surface Rendering Name
  {66d16163-2577-4be3-8aa0-67714fc19d77}, !- Layer 1
  {afd56773-96e8-4b8f-910d-f1baadbd72af}, !- Layer 2
  {9786efc2-0dc5-407c-b805-156eb32ead6b}, !- Layer 3
  {f8cc3739-05bf-4474-a5d6-66960bba1e0c}; !- Layer 4

OS:StandardsInformation:Construction,
  {20a6ab15-2300-4b9a-8c02-188ffe9d13b6}, !- Handle
  {61bf9023-757e-42ce-b4da-122d2d2cfdc1}, !- Construction Name
  ExteriorWall,                           !- Intended Surface Type
  Mass;                                   !- Standards Construction Type

OS:Construction,
  {23e1b494-6c36-436b-8a4d-2c6b88feea2b}, !- Handle
  ASHRAE 189.1-2009 ExtWall Mass ClimateZone alt-res 7, !- Name
  ,                                       !- Surface Rendering Name
  {66d16163-2577-4be3-8aa0-67714fc19d77}, !- Layer 1
  {afd56773-96e8-4b8f-910d-f1baadbd72af}, !- Layer 2
  {9786efc2-0dc5-407c-b805-156eb32ead6b}, !- Layer 3
  {f8cc3739-05bf-4474-a5d6-66960bba1e0c}; !- Layer 4

OS:StandardsInformation:Construction,
  {04676f2b-0881-4754-907f-21d8ccce24e4}, !- Handle
  {23e1b494-6c36-436b-8a4d-2c6b88feea2b}, !- Construction Name
  ExteriorWall,                           !- Intended Surface Type
  Mass;                                   !- Standards Construction Type

OS:Construction,
  {1ddd78af-5e3a-4145-a0f2-065f43deaee4}, !- Handle
  ASHRAE 189.1-2009 ExtWall Mass ClimateZone alt-res 8, !- Name