
OS:Version,
  {a72f631b-2232-4211-81d7-b1cc78994575}, !- Handle
  1.2.3;                                  !- Version Identifier

OS:Construction,
  {997ff45d-8deb-4f7a-b080-2db60b4322fd}, !- Handle
  ASHRAE 189.1-2009 AtticFloor ClimateZone 1-8, !- Name
  ,                                       !- Surface Rendering Name
  {8981bfc6-0071-4ed8-9467-57c6c38c1f4e}, !- Layer 1
  {4833dcc0-914a-440c-8215-e1c4f20b4655}, !- Layer 2
  {8981bfc6-0071-4ed8-9467-57c6c38c1f4e}; !- Layer 3

OS:StandardsInformation:Construction,
  {36c18b04-bad7-4689-a6d0-09e948a5b77c}, !- Handle
  {997ff45d-8deb-4f7a-b080-2db60b4322fd}, !- Construction Name
  AtticFloor,                             !- Intended Surface Type
  ASHRAE 189.1-2009;                      !- Standards Construction Type

OS:Material,
  {8981bfc6-0071-4ed8-9467-57c6c38c1f4e}, !- Handle
  1/2IN Gypsum,                           !- Name
  Smooth,                                 !- Roughness
  0.0127,                                 !- Thickness {m}
  0.16,                                   !- Conductivity {W/m-K}
  784.9,                                  !- Density {kg/m3}
  830.000000000001,                       !- Specific Heat {J/kg-K}
  0.9,                                    !- Thermal Absorptance
  0.92,                                   !- Solar Absorptance
  0.92;                                   !- Visible Absorptance

OS:Material,
  {4833dcc0-914a-440c-8215-e1c4f20b4655}, !- Handle
  AtticFloor Insulation,                  !- Name
  MediumRough,                            !- Roughness
  0.2379,                                 !- Thickness {m}
  0.049,                                  !- Conductivity {W/m-K}
  265,                                    !- Density {kg/m3}
  836.800000000001,                       !- Specific Heat {J/kg-K}
  0.9,                                    !- Thermal Absorptance
  0.7,                                    !- Solar Absorptance
  0.7;                                    !- Visible Absorptance

OS:Construction,
  {0c35b797-0e08-4ca2-8a7c-99bffc3af4fe}, !- Handle
  ASHRAE 189.1-2009 ExtRoof IEAD ClimateZone 1, !- Name
  ,                                       !- Surface Rendering Name
  {b3e3b73f-94ab-4317-85cc-7ba71843acc3}, !- Layer 1
  {f9110b05-ef86-42e2-b0fd-2e9ffe087a7a}, !- Layer 2
  {e4fe446a-9cda-4880-b25b-e08e8c944e5b}; !- Layer 3

OS:StandardsInformation:Construction,
  {c3c30196-8fd0-4ed1-963f-c7b69c00744c}, !- Handle
  {0c35b797-0e08-4ca2-8a7c-99bffc3af4fe}, !- Construction Name
  ExteriorRoof,                           !- Intended Surface Type
  ASHRAE 189.1-2009;                      !- Standards Construction Type

OS:Material,
  {b3e3b73f-94ab-4317-85cc-7ba71843acc3}, !- Handle
  Roof Membrane,                          !- Name
  VeryRough,                              !- Roughness
  0.0095,                                 !- Thickness {m}
  0.16,                                   !- Conductivity {W/m-K}
  1121.29,                                !- Density {kg/m3}
  1460,                                   !- Specific Heat {J/kg-K}
  0.9,                                    !- Thermal Absorptance
  0.7,                                    !- Solar Absorptance
  0.7;                                    !- Visible Absorptance

OS:Material,
  {f9110b05-ef86-42e2-b0fd-2e9ffe087a7a}, !- Handle
  Roof Insulation [18],                   !- Name
  MediumRough,                            !- Roughness
  0.1693,                                 !- Thickness {m}
  0.049,                                  !- Conductivity {W/m-K}
  265,                                    !- Density {kg/m3}
  836.800000000001,                       !- Specific Heat {J/kg-K}
  0.9,                                    !- Thermal Absorptance
  0.7,                                    !- Solar Absorptance
  0.7;                                    !- Visible Absorptance

OS:Material,
  {e4fe446a-9cda-4880-b25b-e08e8c944e5b}, !- Handle
  Metal Decking,                          !- Name
  MediumSmooth,                           !- Roughness
  0.0015,                                 !- Thickness {m}
  45.006,                                 !- Conductivity {W/m-K}
  7680,                                   !- Density {kg/m3}
  418.4,                                  !- Specific Heat {J/kg-K}
  0.9,                                    !- Thermal Absorptance
  0.7,                                    !- Solar Absorptance
  0.3;                                    !- Visible Absorptance

OS:Construction,
  {8570416e-5588-4e19-9a4d-e2a3fef3ea71}, !- Handle
  ASHRAE 189.1-2009 ExtRoof IEAD ClimateZone 2-5, !- Name
  ,                                       !- Surface Rendering Name
  {b3e3b73f-94ab-4317-85cc-7ba71843acc3}, !- Layer 1
  {bdd8fe68-4f57-4707-bd35-7f7a9367df86}, !- Layer 2
  {e4fe446a-9cda-4880-b25b-e08e8c944e5b}; !- Layer 3

OS:StandardsInformation:Construction,
  {4c634f38-7059-4404-b26b-fdb5a7baf0c4}, !- Handle
  {8570416e-5588-4e19-9a4d-e2a3fef3ea71}, !- Construction Name
  ExteriorRoof,                           !- Intended Surface Type
  ASHRAE 189.1-2009;                      !- Standards Construction Type

OS:Material,
  {bdd8fe68-4f57-4707-bd35-7f7a9367df86}, !- Handle
  Roof Insulation [21],                   !- Name
  MediumRough,                            !- Roughness
  0.2105,                                 !- Thickness {m}
  0.049,                                  !- Conductivity {W/m-K}
  265,                                    !- Density {kg/m3}
  836.800000000001,                       !- Specific Heat {J/kg-K}
  0.9,                                    !- Thermal Absorptance
  0.7,                                    !- Solar Absorptance
  0.7;                                    !- Visible Absorptance

OS:Construction,
  {7f4f13e8-ba24-46b6-9b49-16ebed5c0daf}, !- Handle
  ASHRAE 189.1-2009 ExtRoof IEAD ClimateZone 6, !- Name
  ,                                       !- Surface Rendering Name
  {b3e3b73f-94ab-4317-85cc-7ba71843acc3}, !- Layer 1
  {4349bcd5-945c-4e2c-9d33-29a8098fb280}, !- Layer 2
  {e4fe446a-9cda-4880-b25b-e08e8c944e5b}; !- Layer 3

OS:StandardsInformation:Construction,
  {752a5caf-7bb1-4d48-9ed3-c3bbec6e08c3}, !- Handle
  {7f4f13e8-ba24-46b6-9b49-16ebed5c0daf}, !- Construction Name
  ExteriorRoof,                           !- Intended Surface Type
  ASHRAE 189.1-2009;                      !- Standards Construction Type

OS:Material,
  {4349bcd5-945c-4e2c-9d33-29a8098fb280}, !- Handle
  Roof Insulation [24],                   !- Name
  MediumRough,                            !- Roughness
  0.260100000000001,                      !- Thickness {m}
  0.049,                                  !- Conductivity {W/m-K}
  265,                                    !- Density {kg/m3}
  836.800000000001,                       !- Specific Heat {J/kg-K}
  0.9,                                    !- Thermal Absorptance
  0.7,                                    !- Solar Absorptance
  0.7;                                    !- Visible Absorptance

OS:Construction,
  {ec81a10b-088c-488e-b29f-498a4994cf75}, !- Handle
  ASHRAE 189.1-2009 ExtRoof IEAD ClimateZone 7-8, !- Name
  ,                                       !- Surface Rendering Name
  {b3e3b73f-94ab-4317-85cc-7ba71843acc3}, !- Layer 1
  {2430e133-51ae-4ec7-8a86-861a479464d0}, !- Layer 2
  {e4fe446a-9cda-4880-b25b-e08e8c944e5b}; !- Layer 3

OS:StandardsInformation:Construction,
  {74b636d4-6692-4ddc-a0e6-626ffc843982}, !- Handle
  {ec81a10b-088c-488e-b29f-498a4994cf75}, !- Construction Name
  ExteriorRoof,                           !- Intended Surface Type
  ASHRAE 189.1-2009;                      !- Standards Construction Type

OS:Material,
  {2430e133-51ae-4ec7-8a86-861a479464d0}, !- Handle
  Roof Insulation [26],                   !- Name
  MediumRough,                            !- Roughness
  0.2941,                                 !- Thickness {m}
  0.049,                                  !- Conductivity {W/m-K}
  265,                                    !- Density {kg/m3}
  836.800000000001,                       !- Specific Heat {J/kg-K}
  0.9,                                    !- Thermal Absorptance
  0.7,                                    !- Solar Absorptance
  0.7;                                    !- Visible Absorptance

OS:Construction,
  {650404f8-bc42-421d-bc15-385485c26c8b}, !- Handle
  ASHRAE 189.1-2009 ExtRoof Metal ClimateZone 1, !- Name
  ,                                       !- Surface Rendering Name
  {d016a5c9-4ece-437b-aa86-65eb2158d9d1}, !- Layer 1
  {90907fbc-27f3-4c88-a4a4-9cda2fac9748}; !- Layer 2

OS:StandardsInformation:Construction,
  {03ecdb6f-daa9-4a8c-be99-393a75b2b44a}, !- Handle
  {650404f8-bc42-421d-bc15-385485c26c8b}, !- Construction Name
  ExteriorRoof,                           !- Intended Surface Type
  ASHRAE 189.1-2009;                      !- Standards Construction Type

OS:Material,
  {d016a5c9-4ece-437b-aa86-65eb2158d9d1}, !- Handle
  Metal Roofing,                          !- Name
  MediumSmooth,                           !- Roughness
  0.0015,                                 !- Thickness {m}
  45.006,                                 !- Conductivity {W/m-K}
  7680,                                   !- Density {kg/m3}
  418.4,                                  !- Specific Heat {J/kg-K}
  0.9,                                    !- Thermal Absorptance
  0.3,                                    !- Solar Absorptance
  0.3;                                    !- Visible Absorptance

OS:Material,
  {90907fbc-27f3-4c88-a4a4-9cda2fac9748}, !- Handle
  Roof Insulation [19],                   !- Name
  MediumRough,                            !- Roughness
  0.1868,                                 !- Thickness {m}
  0.049,                                  !- Conductivity {W/m-K}
  265,                                    !- Density {kg/m3}
  836.800000000001,                       !- Specific Heat {J/kg-K}
  0.9,                                    !- Thermal Absorptance
  0.7,                                    !- Solar Absorptance
  0.7;                                    !- Visible Absorptance

OS:Construction,
  {97382d29-297a-4bf5-8eac-8fc0169dd7b8}, !- Handle
  ASHRAE 189.1-2009 ExtRoof Metal ClimateZone 2-5, !- Name
  ,                                       !- Surface Rendering Name
  {d016a5c9-4ece-437b-aa86-65eb2158d9d1}, !- Layer 1
  {1343e15c-dcf4-4b75-9ddd-89027edbd86c}; !- Layer 2

OS:StandardsInformation:Construction,
  {fd885cbc-d665-436d-bb93-ba850f09f2ed}, !- Handle
  {97382d29-297a-4bf5-8eac-8fc0169dd7b8}, !- Construction Name
  ExteriorRoof,                           !- Intended Surface Type
  ASHRAE 189.1-2009;                      !- Standards Construction Type

OS:Material,
  {1343e15c-dcf4-4b75-9ddd-89027edbd86c}, !- Handle
  Roof Insulation [22],                   !- Name
  MediumRough,                            !- Roughness
  0.2358,                                 !- Thickness {m}
  0.049,                                  !- Conductivity {W/m-K}
  265,                                    !- Density {kg/m3}
  836.800000000001,                       !- Specific Heat {J/kg-K}
  0.9,                                    !- Thermal Absorptance
  0.7,                                    !- Solar Absorptance
  0.7;                                    !- Visible Absorptance

OS:Construction,
  {14274931-97a1-4d2a-95ed-592dbe6a7d2c}, !- Handle
  ASHRAE 189.1-2009 ExtRoof Metal ClimateZone 6, !- Name
  ,                                       !- Surface Rendering Name
  {d016a5c9-4ece-437b-aa86-65eb2158d9d1}, !- Layer 1
  {63dfe205-116e-4b60-b723-0121f7025a4c}; !- Layer 2

OS:StandardsInformation:Construction,
  {2efe8e06-97ed-47ea-aca3-bd8b9d17af5d}, !- Handle
  {14274931-97a1-4d2a-95ed-592dbe6a7d2c}, !- Construction Name
  ExteriorRoof,                           !- Intended Surface Type
  ASHRAE 189.1-2009;                      !- Standards Construction Type

OS:Material,
  {63dfe205-116e-4b60-b723-0121f7025a4c}, !- Handle
  Roof Insulation [25],                   !- Name
  MediumRough,                            !- Roughness
  0.263,                                  !- Thickness {m}
  0.049,                                  !- Conductivity {W/m-K}
  265,                                    !- Density {kg/m3}
  836.800000000001,                       !- Specific Heat {J/kg-K}
  0.9,                                    !- Thermal Absorptance
  0.7,                                    !- Solar Absorptance
  0.7;                                    !- Visible Absorptance

OS:Construction,
  {6a29968f-d143-4d49-9cd0-252163793b60}, !- Handle
  ASHRAE 189.1-2009 ExtRoof Metal ClimateZone 7-8, !- Name
  ,                                       !- Surface Rendering Name
  {d016a5c9-4ece-437b-aa86-65eb2158d9d1}, !- Layer 1
  {65aaa65e-56fb-4bee-bb49-148dffb7f7b3}; !- Layer 2

OS:StandardsInformation:Construction,
  {9b10ecc9-8313-4159-882e-90a459718bcc}, !- Handle
  {6a29968f-d143-4d49-9cd0-252163793b60}, !- Construction Name
  ExteriorRoof,                           !- Intended Surface Type
  ASHRAE 189.1-2009;                      !- Standards Construction Type

OS:Material,
  {65aaa65e-56fb-4bee-bb49-148dffb7f7b3}, !- Handle
  Roof Insulation [27],                   !- Name
  MediumRough,                            !- Roughness
  0.297000000000001,                      !- Thickness {m}
  0.049,                                  !- Conductivity {W/m-K}
  265,                                    !- Density {kg/m3}
  836.800000000001,                       !- Specific Heat {J/kg-K}
  0.9,                                    !- Thermal Absorptance
  0.7,                                    !- Solar Absorptance
  0.7;                                    !- Visible Absorptance

OS:Construction,
  {136abe63-d625-433e-a90a-700ad3daf83b}, !- Handle
  ASHRAE 189.1-2009 ExtWall Mass ClimateZone 1, !- Name
  ,                                       !- Surface Rendering Name
  {9cfb4c61-a1e1-43cf-8e80-f504f377f282}, !- Layer 1
  {f832a2e1-5411-4589-a032-a2d488a595aa}, !- Layer 2
  {a5a910c5-59a7-421e-a314-1b19b31a0a47}, !- Layer 3
  {8981bfc6-0071-4ed8-9467-57c6c38c1f4e}; !- Layer 4

OS:StandardsInformation:Construction,
  {3dfa91c7-8ae6-4dc3-99f2-c5a3e33a3f4a}, !- Handle
  {136abe63-d625-433e-a90a-700ad3daf83b}, !- Construction Name
  ExteriorWall,                           !- Intended Surface Type
  ASHRAE 189.1-2009;                      !- Standards Construction Type

OS:Material,
  {9cfb4c61-a1e1-43cf-8e80-f504f377f282}, !- Handle
  1IN Stucco,                             !- Name
  Smooth,                                 !- Roughness
  0.0253,                                 !- Thickness {m}
  0.691799999999999,                      !- Conductivity {W/m-K}
  1858,                                   !- Density {kg/m3}
  836.999999999999,                       !- Specific Heat {J/kg-K}
  0.9,                                    !- Thermal Absorptance
  0.92,                                   !- Solar Absorptance
  0.92;                                   !- Visible Absorptance

OS:Material,
  {f832a2e1-5411-4589-a032-a2d488a595aa}, !- Handle
  8IN Concrete HW,                        !- Name
  MediumRough,                            !- Roughness
  0.2033,                                 !- Thickness {m}
  1.72959999999999,                       !- Conductivity {W/m-K}
  2242.99999999999,                       !- Density {kg/m3}
  836.999999999999,                       !- Specific Heat {J/kg-K}
  0.9,                                    !- Thermal Absorptance
  0.65,                                   !- Solar Absorptance
  0.65;                                   !- Visible Absorptance

OS:Material,
  {a5a910c5-59a7-421e-a314-1b19b31a0a47}, !- Handle
  Wall Insulation [31],                   !- Name
  MediumRough,                            !- Roughness
  0.0337000000000001,                     !- Thickness {m}
  0.0432,                                 !- Conductivity {W/m-K}
  91,                                     !- Density {kg/m3}
  836.999999999999,                       !- Specific Heat {J/kg-K}
  0.9,                                    !- Thermal Absorptance
  0.5,                                    !- Solar Absorptance
  0.5;                                    !- Visible Absorptance

OS:Construction,
  {ab7bc813-df5a-478b-953e-25fea1948a75}, !- Handle
  ASHRAE 189.1-2009 ExtWall Mass ClimateZone 2, !- Name
  ,                                       !- Surface Rendering Name
  {9cfb4c61-a1e1-43cf-8e80-f504f377f282}, !- Layer 1
  {f832a2e1-5411-4589-a032-a2d488a595aa}, !- Layer 2
  {0071ca47-a090-4003-bab8-c6c559f7b342}, !- Layer 3
  {8981bfc6-0071-4ed8-9467-57c6c38c1f4e}; !- Layer 4

OS:StandardsInformation:Construction,
  {9caef10a-59db-4389-b4a4-768bd2d05706}, !- Handle
  {ab7bc813-df5a-478b-953e-25fea1948a75}, !- Construction Name
  ExteriorWall,                           !- Intended Surface Type
  ASHRAE 189.1-2009;                      !- Standards Construction Type

OS:Material,
  {0071ca47-a090-4003-bab8-c6c559f7b342}, !- Handle
  Wall Insulation [35],                   !- Name
  MediumRough,                            !- Roughness
  0.0452,                                 !- Thickness {m}
  0.0432,                                 !- Conductivity {W/m-K}
  91,                                     !- Density {kg/m3}
  836.999999999999,                       !- Specific Heat {J/kg-K}
  0.9,                                    !- Thermal Absorptance
  0.5,                                    !- Solar Absorptance
  0.5;                                    !- Visible Absorptance

OS:Construction,
  {d9011d82-48ae-4c43-af24-3be4de6cce77}, !- Handle
  ASHRAE 189.1-2009 ExtWall Mass ClimateZone 3, !- Name
  ,                                       !- Surface Rendering Name
  {9cfb4c61-a1e1-43cf-8e80-f504f377f282}, !- Layer 1
  {f832a2e1-5411-4589-a032-a2d488a595aa}, !- Layer 2
  {6329435c-5616-46ab-88dd-2ad34e49edb4}, !- Layer 3
  {8981bfc6-0071-4ed8-9467-57c6c38c1f4e}; !- Layer 4

OS:StandardsInformation:Construction,
  {7c7c7ddb-3c8e-4de8-a81e-220cd3e37723}, !- Handle
  {d9011d82-48ae-4c43-af24-3be4de6cce77}, !- Construction Name
  ExteriorWall,                           !- Intended Surface Type
  ASHRAE 189.1-2009;                      !- Standards Construction Type

OS:Material,
  {6329435c-5616-46ab-88dd-2ad34e49edb4}, !- Handle
  Wall Insulation [36],                   !- Name
  MediumRough,                            !- Roughness
  0.0565999999999999,                     !- Thickness {m}
  0.0432,                                 !- Conductivity {W/m-K}
  91,                                     !- Density {kg/m3}
  836.999999999999,                       !- Specific Heat {J/kg-K}
  0.9,                                    !- Thermal Absorptance
  0.5,                                    !- Solar Absorptance
  0.5;                                    !- Visible Absorptance

OS:Construction,
  {cb225725-cde8-422d-ac62-84753280a363}, !- Handle
  ASHRAE 189.1-2009 ExtWall Mass ClimateZone 4, !- Name
  ,                                       !- Surface Rendering Name
  {9cfb4c61-a1e1-43cf-8e80-f504f377f282}, !- Layer 1
  {f832a2e1-5411-4589-a032-a2d488a595aa}, !- Layer 2
  {ee7b7c4c-ce12-4e34-84b5-c6e936b8229b}, !- Layer 3
  {8981bfc6-0071-4ed8-9467-57c6c38c1f4e}; !- Layer 4

OS:StandardsInformation:Construction,
  {4082495d-6af2-4924-b2e7-b7d60aef73ba}, !- Handle
  {cb225725-cde8-422d-ac62-84753280a363}, !- Construction Name
  ExteriorWall,                           !- Intended Surface Type
  ASHRAE 189.1-2009;                      !- Standards Construction Type

OS:Material,
  {ee7b7c4c-ce12-4e34-84b5-c6e936b8229b}, !- Handle
  Wall Insulation [37],                   !- Name
  MediumRough,                            !- Roughness
  0.0680999999999999,                     !- Thickness {m}
  0.0432,                                 !- Conductivity {W/m-K}
  91,                                     !- Density {kg/m3}
  836.999999999999,                       !- Specific Heat {J/kg-K}
  0.9,                                    !- Thermal Absorptance
  0.5,                                    !- Solar Absorptance
  0.5;                                    !- Visible Absorptance

OS:Construction,
  {bb2204b6-a2a6-4586-bd60-37d172aa2405}, !- Handle
  ASHRAE 189.1-2009 ExtWall Mass ClimateZone 5, !- Name
  ,                                       !- Surface Rendering Name
  {9cfb4c61-a1e1-43cf-8e80-f504f377f282}, !- Layer 1
  {f832a2e1-5411-4589-a032-a2d488a595aa}, !- Layer 2
  {2a8c7bce-d0ee-439d-9637-b44bcc550f4c}, !- Layer 3
  {8981bfc6-0071-4ed8-9467-57c6c38c1f4e}; !- Layer 4

OS:StandardsInformation:Construction,
  {873e8336-ff3d-4bfe-9cf6-d8b40ac5acd8}, !- Handle
  {bb2204b6-a2a6-4586-bd60-37d172aa2405}, !- Construction Name
  ExteriorWall,                           !- Intended Surface Type
  ASHRAE 189.1-2009;                      !- Standards Construction Type

OS:Material,
  {2a8c7bce-d0ee-439d-9637-b44bcc550f4c}, !- Handle
  Wall Insulation [40],                   !- Name
  MediumRough,                            !- Roughness
  0.0793999999999999,                     !- Thickness {m}
  0.0432,                                 !- Conductivity {W/m-K}
  91,                                     !- Density {kg/m3}
  836.999999999999,                       !- Specific Heat {J/kg-K}
  0.9,                                    !- Thermal Absorptance
  0.5,                                    !- Solar Absorptance
  0.5;                                    !- Visible Absorptance

OS:Construction,
  {1815178c-90ec-414f-aac7-31f4eac5c444}, !- Handle
  ASHRAE 189.1-2009 ExtWall Mass ClimateZone 6, !- Name
  ,                                       !- Surface Rendering Name
  {9cfb4c61-a1e1-43cf-8e80-f504f377f282}, !- Layer 1
  {f832a2e1-5411-4589-a032-a2d488a595aa}, !- Layer 2
  {c004bdde-414c-4b97-a035-692848fa199d}, !- Layer 3
  {8981bfc6-0071-4ed8-9467-57c6c38c1f4e}; !- Layer 4

OS:StandardsInformation:Construction,
  {8116570a-8639-4c95-b31d-c151fec29758}, !- Handle
  {1815178c-90ec-414f-aac7-31f4eac5c444}, !- Construction Name
  ExteriorWall,                           !- Intended Surface Type
  ASHRAE 189.1-2009;                      !- Standards Construction Type

OS:Material,
  {c004bdde-414c-4b97-a035-692848fa199d}, !- Handle
  Wall Insulation [42],                   !- Name
  MediumRough,                            !- Roughness
  0.0913999999999999,                     !- Thickness {m}
  0.0432,                                 !- Conductivity {W/m-K}
  91,                                     !- Density {kg/m3}
  836.999999999999,                       !- Specific Heat {J/kg-K}
  0.9,                                    !- Thermal Absorptance
  0.5,                                    !- Solar Absorptance
  0.5;                                    !- Visible Absorptance

OS:Construction,
  {1d6eaf9e-c24c-4fda-8b23-3d38eff8ea06}, !- Handle
  ASHRAE 189.1-2009 ExtWall Mass ClimateZone 7-8, !- Name
  ,                                       !- Surface Rendering Name
  {9cfb4c61-a1e1-43cf-8e80-f504f377f282}, !- Layer 1
  {f832a2e1-5411-4589-a032-a2d488a595aa}, !- Layer 2
  {e18f9222-21ff-4bcc-9313-0d840c75635c}, !- Layer 3
  {8981bfc6-0071-4ed8-9467-57c6c38c1f4e}; !- Layer 4

OS:StandardsInformation:Construction,
  {21c7a820-9c5a-4e7a-8fc3-5344cd05b28d}, !- Handle
  {1d6eaf9e-c24c-4fda-8b23-3d38eff8ea06}, !- Construction Name
  ExteriorWall,                           !- Intended Surface Type
  ASHRAE 189.1-2009;                      !- Standards Construction Type

OS:Material,
  {e18f9222-21ff-4bcc-9313-0d840c75635c}, !- Handle
  Wall Insulation [44],                   !- Name
  MediumRough,                            !- Roughness
  0.1104,                                 !- Thickness {m}
  0.0432,                                 !- Conductivity {W/m-K}
  91,                                     !- Density {kg/m3}
  836.999999999999,                       !- Specific Heat {J/kg-K}
  0.9,                                    !- Thermal Absorptance
  0.5,                                    !- Solar Absorptance
  0.5;                                    !- Visible Absorptance

OS:Construction,
  {db558631-a0a7-4594-a73c-7ac8fb0af336}, !- Handle
  ASHRAE 189.1-2009 ExtWall Mass ClimateZone alt-res 1, !- Name
  ,                                       !- Surface Rendering Name
  {9cfb4c61-a1e1-43cf-8e80-f504f377f282}, !- Layer 1
  {f832a2e1-5411-4589-a032-a2d488a595aa}, !- Layer 2
  {0071ca47-a090-4003-bab8-c6c559f7b342}, !- Layer 3
  {8981bfc6-0071-4ed8-9467-57c6c38c1f4e}; !- Layer 4

OS:StandardsInformation:Construction,
  {efa867f5-3b0c-4271-9337-01ebd138f2ca}, !- Handle
  {db558631-a0a7-4594-a73c-7ac8fb0af336}, !- Construction Name
  ExteriorWall,                           !- Intended Surface Type
  ASHRAE 189.1-2009;                      !- Standards Construction Type

OS:Construction,
  {cef9a971-9ca7-43ea-80b5-2f8597dae1b5}, !- Handle
  ASHRAE 189.1-2009 ExtWall Mass ClimateZone alt-res 2, !- Name
  ,                                       !- Surface Rendering Name
  {9cfb4c61-a1e1-43cf-8e80-f504f377f282}, !- Layer 1
  {f832a2e1-5411-4589-a032-a2d488a595aa}, !- Layer 2
  {6329435c-5616-46ab-88dd-2ad34e49edb4}, !- Layer 3
  {8981bfc6-0071-4ed8-9467-57c6c38c1f4e}; !- Layer 4

OS:StandardsInformation:Construction,
  {3c0d42b6-772b-4699-9a61-0f2fdf63bf04}, !- Handle
  {cef9a971-9ca7-43ea-80b5-2f8597dae1b5}, !- Construction Name
  ExteriorWall,                           !- Intended Surface Type
  ASHRAE 189.1-2009;                      !- Standards Construction Type

OS:Construction,
  {06f5984a-969e-4fe0-833b-f7fd43fc741c}, !- Handle
  ASHRAE 189.1-2009 ExtWall Mass ClimateZone alt-res 3, !- Name
  ,                                       !- Surface Rendering Name
  {9cfb4c61-a1e1-43cf-8e80-f504f377f282}, !- Layer 1
  {f832a2e1-5411-4589-a032-a2d488a595aa}, !- Layer 2
  {ee7b7c4c-ce12-4e34-84b5-c6e936b8229b}, !- Layer 3
  {8981bfc6-0071-4ed8-9467-57c6c38c1f4e}; !- Layer 4

OS:StandardsInformation:Construction,
  {ccbb0b6c-1b5d-42f9-bbd6-d045277511de}, !- Handle
  {06f5984a-969e-4fe0-833b-f7fd43fc741c}, !- Construction Name
  ExteriorWall,                           !- Intended Surface Type
  ASHRAE 189.1-2009;                      !- Standards Construction Type

OS:Construction,
  {2d4782b1-e08f-4329-a168-e000445302e1}, !- Handle
  ASHRAE 189.1-2009 ExtWall Mass ClimateZone alt-res 4, !- Name
  ,                                       !- Surface Rendering Name
  {9cfb4c61-a1e1-43cf-8e80-f504f377f282}, !- Layer 1
  {f832a2e1-5411-4589-a032-a2d488a595aa}, !- Layer 2
  {2a8c7bce-d0ee-439d-9637-b44bcc550f4c}, !- Layer 3
  {8981bfc6-0071-4ed8-9467-57c6c38c1f4e}; !- Layer 4

OS:StandardsInformation:Construction,
  {c5c9f020-e447-4a28-b434-082068655839}, !- Handle
  {2d4782b1-e08f-4329-a168-e000445302e1}, !- Construction Name
  ExteriorWall,                           !- Intended Surface Type
  ASHRAE 189.1-2009;                      !- Standards Construction Type

OS:Construction,
  {6a91735a-76a0-419b-8d0d-6422d8c78b9e}, !- Handle
  ASHRAE 189.1-2009 ExtWall Mass ClimateZone alt-res 5, !- Name
  ,                                       !- Surface Rendering Name
  {9cfb4c61-a1e1-43cf-8e80-f504f377f282}, !- Layer 1
  {f832a2e1-5411-4589-a032-a2d488a595aa}, !- Layer 2
  {c004bdde-414c-4b97-a035-692848fa199d}, !- Layer 3
  {8981bfc6-0071-4ed8-9467-57c6c38c1f4e}; !- Layer 4

OS:StandardsInformation:Construction,
  {214d2f81-5d3a-46f9-a755-fb09a64895b7}, !- Handle
  {6a91735a-76a0-419b-8d0d-6422d8c78b9e}, !- Construction Name
  ExteriorWall,                           !- Intended Surface Type
  ASHRAE 189.1-2009;                      !- Standards Construction Type

OS:Construction,
  {b3af332d-763c-44cc-92f7-32180ce631d4}, !- Handle
  ASHRAE 189.1-2009 ExtWall Mass ClimateZone alt-res 6, !- Name
  ,                                       !- Surface Rendering Name
  {9cfb4c61-a1e1-43cf-8e80-f504f377f282}, !- Layer 1
  {f832a2e1-5411-4589-a032-a2d488a595aa}, !- Layer 2
  {e18f9222-21ff-4bcc-9313-0d840c75635c}, !- Layer 3
  {8981bfc6-0071-4ed8-9467-57c6c38c1f4e}; !- Layer 4

OS:StandardsInformation:Construction,
  {396b9cbd-47a8-4e3a-bc83-748d42e06738}, !- Handle
  {b3af332d-763c-44cc-92f7-32180ce631d4}, !- Construction Name
  ExteriorWall,                           !- Intended Surface Type
  ASHRAE 189.1-2009;                      !- Standards Construction Type

OS:Construction,
  {153b2c9b-d6fd-45e7-bdbe-d6aa4e87cfd7}, !- Handle
  ASHRAE 189.1-2009 ExtWall Mass ClimateZone alt-res 7, !- Name
  ,                                       !- Surface Rendering Name
  {9cfb4c61-a1e1-43cf-8e80-f504f377f282}, !- Layer 1
  {f832a2e1-5411-4589-a032-a2d488a595aa}, !- Layer 2
  {e18f9222-21ff-4bcc-9313-0d840c75635c}, !- Layer 3
  {8981bfc6-0071-4ed8-9467-57c6c38c1f4e}; !- Layer 4

OS:StandardsInformation:Construction,
  {c7e0770f-3134-42ba-99ae-e5a3b50e1a92}, !- Handle
  {153b2c9b-d6fd-45e7-bdbe-d6aa4e87cfd7}, !- Construction Name
  ExteriorWall,                           !- Intended Surface Type
  ASHRAE 189.1-2009;                      !- Standards Construction Type

OS:Construction,
  {3fc8d605-781c-4d74-8899-4f6b73c01b44}, !- Handle
  ASHRAE 189.1-2009 ExtWall Mass ClimateZone alt-res 8, !- Name