
OS:Version,
  {c4eab61b-fe76-407c-a0a4-fb326c2f09c4}, !- Handle
  1.3.0;                                  !- Version Identifier

OS:Construction,
  {a973445d-751e-44c5-9d50-7428d7c98e75}, !- Handle
  ASHRAE 189.1-2009 AtticFloor ClimateZone 1-8, !- Name
  ,                                       !- Surface Rendering Name
  {baf821a4-1219-4e43-b18d-7f9ab23b3282}, !- Layer 1
  {776d0ec6-5254-47d1-a0fb-b967b0ef5f47}, !- Layer 2
  {baf821a4-1219-4e43-b18d-7f9ab23b3282}; !- Layer 3

OS:StandardsInformation:Construction,
  {bee7bc5a-1548-4955-990b-ac6c41daf813}, !- Handle
  {a973445d-751e-44c5-9d50-7428d7c98e75}, !- Construction Name
  AtticFloor,                             !- Intended Surface Type
  WoodFramed;                             !- Standards Construction Type

OS:Material,
  {baf821a4-1219-4e43-b18d-7f9ab23b3282}, !- Handle
  1/2IN Gypsum,                           !- Name
  Smooth,                                 !- Roughness
  0.0127,                                 !- Thickness {m}
  0.16,                                   !- Conductivity {W/m-K}
  784.9,                                  !- Density {kg/m3}
  830.000000000001,                       !- Specific Heat {J/kg-K}
  0.9,                                    !- Thermal Absorptance
  0.92,                                   !- Solar Absorptance
  0.92;                                   !- Visible Absorptance

OS:Material,
  {776d0ec6-5254-47d1-a0fb-b967b0ef5f47}, !- Handle
  AtticFloor Insulation,                  !- Name
  MediumRough,                            !- Roughness
  0.2379,                                 !- Thickness {m}
  0.049,                                  !- Conductivity {W/m-K}
  265,                                    !- Density {kg/m3}
  836.800000000001,                       !- Specific Heat {J/kg-K}
  0.9,                                    !- Thermal Absorptance
  0.7,                                    !- Solar Absorptance
  0.7;                                    !- Visible Absorptance

OS:Construction,
  {7df4aca3-f9cb-411f-80e9-01cec861bbae}, !- Handle
  ASHRAE 189.1-2009 ExtRoof IEAD ClimateZone 1, !- Name
  ,                                       !- Surface Rendering Name
  {932acdf4-54bc-4ebc-aed9-a53e3c3a455c}, !- Layer 1
  {92e56802-b2fc-46d3-b5c4-a101cdda3683}, !- Layer 2
  {ff04ef44-8c1c-4a2d-82cc-870a3494bcae}; !- Layer 3

OS:StandardsInformation:Construction,
  {35cad25e-27dd-450c-b252-7c9266a57e5d}, !- Handle
  {7df4aca3-f9cb-411f-80e9-01cec861bbae}, !- Construction Name
  ExteriorRoof,                           !- Intended Surface Type
  IEAD;                                   !- Standards Construction Type

OS:Material,
  {932acdf4-54bc-4ebc-aed9-a53e3c3a455c}, !- Handle
  Roof Membrane,                          !- Name
  VeryRough,                              !- Roughness
  0.0095,                                 !- Thickness {m}
  0.16,                                   !- Conductivity {W/m-K}
  1121.29,                                !- Density {kg/m3}
  1460,                                   !- Specific Heat {J/kg-K}
  0.9,                                    !- Thermal Absorptance
  0.7,                                    !- Solar Absorptance
  0.7;                                    !- Visible Absorptance

OS:Material,
  {92e56802-b2fc-46d3-b5c4-a101cdda3683}, !- Handle
  Roof Insulation [18],                   !- Name
  MediumRough,                            !- Roughness
  0.1693,                                 !- Thickness {m}
  0.049,                                  !- Conductivity {W/m-K}
  265,                                    !- Density {kg/m3}
  836.800000000001,                       !- Specific Heat {J/kg-K}
  0.9,                                    !- Thermal Absorptance
  0.7,                                    !- Solar Absorptance
  0.7;                                    !- Visible Absorptance

OS:Material,
  {ff04ef44-8c1c-4a2d-82cc-870a3494bcae}, !- Handle
  Metal Decking,                          !- Name
  MediumSmooth,                           !- Roughness
  0.0015,                                 !- Thickness {m}
  45.006,                                 !- Conductivity {W/m-K}
  7680,                                   !- Density {kg/m3}
  418.4,                                  !- Specific Heat {J/kg-K}
  0.9,                                    !- Thermal Absorptance
  0.7,                                    !- Solar Absorptance
  0.3;                                    !- Visible Absorptance

OS:Construction,
  {b5360b08-4988-4337-9da1-fab9a729f681}, !- Handle
  ASHRAE 189.1-2009 ExtRoof IEAD ClimateZone 2-5, !- Name
  ,                                       !- Surface Rendering Name
  {932acdf4-54bc-4ebc-aed9-a53e3c3a455c}, !- Layer 1
  {9f6da756-9cdf-402e-91aa-96211058f734}, !- Layer 2
  {ff04ef44-8c1c-4a2d-82cc-870a3494bcae}; !- Layer 3

OS:StandardsInformation:Construction,
  {215068e5-5444-4719-8366-cc130fd317e8}, !- Handle
  {b5360b08-4988-4337-9da1-fab9a729f681}, !- Construction Name
  ExteriorRoof,                           !- Intended Surface Type
  IEAD;                                   !- Standards Construction Type

OS:Material,
  {9f6da756-9cdf-402e-91aa-96211058f734}, !- Handle
  Roof Insulation [21],                   !- Name
  MediumRough,                            !- Roughness
  0.2105,                                 !- Thickness {m}
  0.049,                                  !- Conductivity {W/m-K}
  265,                                    !- Density {kg/m3}
  836.800000000001,                       !- Specific Heat {J/kg-K}
  0.9,                                    !- Thermal Absorptance
  0.7,                                    !- Solar Absorptance
  0.7;                                    !- Visible Absorptance

OS:Construction,
  {fa6ee0dc-beda-4773-bb2c-f6218fa80073}, !- Handle
  ASHRAE 189.1-2009 ExtRoof IEAD ClimateZone 6, !- Name
  ,                                       !- Surface Rendering Name
  {932acdf4-54bc-4ebc-aed9-a53e3c3a455c}, !- Layer 1
  {6228f776-c5f8-41aa-9a94-338255d1b430}, !- Layer 2
  {ff04ef44-8c1c-4a2d-82cc-870a3494bcae}; !- Layer 3

OS:StandardsInformation:Construction,
  {c62962b7-baa3-480b-b6c9-16b5e0effa0f}, !- Handle
  {fa6ee0dc-beda-4773-bb2c-f6218fa80073}, !- Construction Name
  ExteriorRoof,                           !- Intended Surface Type
  IEAD;                                   !- Standards Construction Type

OS:Material,
  {6228f776-c5f8-41aa-9a94-338255d1b430}, !- Handle
  Roof Insulation [24],                   !- Name
  MediumRough,                            !- Roughness
  0.260100000000001,                      !- Thickness {m}
  0.049,                                  !- Conductivity {W/m-K}
  265,                                    !- Density {kg/m3}
  836.800000000001,                       !- Specific Heat {J/kg-K}
  0.9,                                    !- Thermal Absorptance
  0.7,                                    !- Solar Absorptance
  0.7;                                    !- Visible Absorptance

OS:Construction,
  {a08ac293-c94f-47dc-aa4d-d843aa0e4c67}, !- Handle
  ASHRAE 189.1-2009 ExtRoof IEAD ClimateZone 7-8, !- Name
  ,                                       !- Surface Rendering Name
  {932acdf4-54bc-4ebc-aed9-a53e3c3a455c}, !- Layer 1
  {4c4a48c9-5e9f-4433-bbe7-5fcbf3f7602f}, !- Layer 2
  {ff04ef44-8c1c-4a2d-82cc-870a3494bcae}; !- Layer 3

OS:StandardsInformation:Construction,
  {0a8932de-8bf3-4fd8-a3a0-f883d5a48ce9}, !- Handle
  {a08ac293-c94f-47dc-aa4d-d843aa0e4c67}, !- Construction Name
  ExteriorRoof,                           !- Intended Surface Type
  IEAD;                                   !- Standards Construction Type

OS:Material,
  {4c4a48c9-5e9f-4433-bbe7-5fcbf3f7602f}, !- Handle
  Roof Insulation [26],                   !- Name
  MediumRough,                            !- Roughness
  0.2941,                                 !- Thickness {m}
  0.049,                                  !- Conductivity {W/m-K}
  265,                                    !- Density {kg/m3}
  836.800000000001,                       !- Specific Heat {J/kg-K}
  0.9,                                    !- Thermal Absorptance
  0.7,                                    !- Solar Absorptance
  0.7;                                    !- Visible Absorptance

OS:Construction,
  {d0e2561a-bf30-4e7c-8f0c-c2c119a33abd}, !- Handle
  ASHRAE 189.1-2009 ExtRoof Metal ClimateZone 1, !- Name
  ,                                       !- Surface Rendering Name
  {7ac6c7a3-5646-486b-b07a-a6d973e07a28}, !- Layer 1
  {a83298a9-e5e9-4ac6-a5f7-c4580ca7f5be}; !- Layer 2

OS:StandardsInformation:Construction,
  {7582a001-ab2e-4aae-8a25-d0a9dd8e04aa}, !- Handle
  {d0e2561a-bf30-4e7c-8f0c-c2c119a33abd}, !- Construction Name
  ExteriorRoof,                           !- Intended Surface Type
  Metal;                                  !- Standards Construction Type

OS:Material,
  {7ac6c7a3-5646-486b-b07a-a6d973e07a28}, !- Handle
  Metal Roofing,                          !- Name
  MediumSmooth,                           !- Roughness
  0.0015,                                 !- Thickness {m}
  45.006,                                 !- Conductivity {W/m-K}
  7680,                                   !- Density {kg/m3}
  418.4,                                  !- Specific Heat {J/kg-K}
  0.9,                                    !- Thermal Absorptance
  0.3,                                    !- Solar Absorptance
  0.3;                                    !- Visible Absorptance

OS:Material,
  {a83298a9-e5e9-4ac6-a5f7-c4580ca7f5be}, !- Handle
  Roof Insulation [19],                   !- Name
  MediumRough,                            !- Roughness
  0.1868,                                 !- Thickness {m}
  0.049,                                  !- Conductivity {W/m-K}
  265,                                    !- Density {kg/m3}
  836.800000000001,                       !- Specific Heat {J/kg-K}
  0.9,                                    !- Thermal Absorptance
  0.7,                                    !- Solar Absorptance
  0.7;                                    !- Visible Absorptance

OS:Construction,
  {5834d533-8fab-4b61-b3de-73ea9b82748e}, !- Handle
  ASHRAE 189.1-2009 ExtRoof Metal ClimateZone 2-5, !- Name
  ,                                       !- Surface Rendering Name
  {7ac6c7a3-5646-486b-b07a-a6d973e07a28}, !- Layer 1
  {f17bfbea-7142-4611-b114-62d378061880}; !- Layer 2

OS:StandardsInformation:Construction,
  {e227bbbf-607b-431c-9ed0-76346db82e0d}, !- Handle
  {5834d533-8fab-4b61-b3de-73ea9b82748e}, !- Construction Name
  ExteriorRoof,                           !- Intended Surface Type
  Metal;                                  !- Standards Construction Type

OS:Material,
  {f17bfbea-7142-4611-b114-62d378061880}, !- Handle
  Roof Insulation [22],                   !- Name
  MediumRough,                            !- Roughness
  0.2358,                                 !- Thickness {m}
  0.049,                                  !- Conductivity {W/m-K}
  265,                                    !- Density {kg/m3}
  836.800000000001,                       !- Specific Heat {J/kg-K}
  0.9,                                    !- Thermal Absorptance
  0.7,                                    !- Solar Absorptance
  0.7;                                    !- Visible Absorptance

OS:Construction,
  {194fe72b-a6fd-4a61-91ed-2153e3bee58f}, !- Handle
  ASHRAE 189.1-2009 ExtRoof Metal ClimateZone 6, !- Name
  ,                                       !- Surface Rendering Name
  {7ac6c7a3-5646-486b-b07a-a6d973e07a28}, !- Layer 1
  {a101f204-cc76-4ecc-9e29-453f9d092bdb}; !- Layer 2

OS:StandardsInformation:Construction,
  {32457ed1-22c9-4962-9b96-e4c09b93d7ab}, !- Handle
  {194fe72b-a6fd-4a61-91ed-2153e3bee58f}, !- Construction Name
  ExteriorRoof,                           !- Intended Surface Type
  Metal;                                  !- Standards Construction Type

OS:Material,
  {a101f204-cc76-4ecc-9e29-453f9d092bdb}, !- Handle
  Roof Insulation [25],                   !- Name
  MediumRough,                            !- Roughness
  0.263,                                  !- Thickness {m}
  0.049,                                  !- Conductivity {W/m-K}
  265,                                    !- Density {kg/m3}
  836.800000000001,                       !- Specific Heat {J/kg-K}
  0.9,                                    !- Thermal Absorptance
  0.7,                                    !- Solar Absorptance
  0.7;                                    !- Visible Absorptance

OS:Construction,
  {3bfedc42-ccad-4bc7-9a1d-76c9d1d4839e}, !- Handle
  ASHRAE 189.1-2009 ExtRoof Metal ClimateZone 7-8, !- Name
  ,                                       !- Surface Rendering Name
  {7ac6c7a3-5646-486b-b07a-a6d973e07a28}, !- Layer 1
  {7f5c970c-d825-4987-959f-e255bd2e534d}; !- Layer 2

OS:StandardsInformation:Construction,
  {239ed549-b25f-4d4e-b7ff-a032e89fb22b}, !- Handle
  {3bfedc42-ccad-4bc7-9a1d-76c9d1d4839e}, !- Construction Name
  ExteriorRoof,                           !- Intended Surface Type
  Metal;                                  !- Standards Construction Type

OS:Material,
  {7f5c970c-d825-4987-959f-e255bd2e534d}, !- Handle
  Roof Insulation [27],                   !- Name
  MediumRough,                            !- Roughness
  0.297000000000001,                      !- Thickness {m}
  0.049,                                  !- Conductivity {W/m-K}
  265,                                    !- Density {kg/m3}
  836.800000000001,                       !- Specific Heat {J/kg-K}
  0.9,                                    !- Thermal Absorptance
  0.7,                                    !- Solar Absorptance
  0.7;                                    !- Visible Absorptance

OS:Construction,
  {0eb77d23-a303-439c-adc6-ea2989d0080e}, !- Handle
  ASHRAE 189.1-2009 ExtWall Mass ClimateZone 1, !- Name
  ,                                       !- Surface Rendering Name
  {2ebc2cad-026a-45c3-9f95-904275d5aa4e}, !- Layer 1
  {c0f1d0b9-5707-4938-b6a9-81e1e3883fa2}, !- Layer 2
  {34121419-9d5b-4d36-b82f-c7aedc81a246}, !- Layer 3
  {baf821a4-1219-4e43-b18d-7f9ab23b3282}; !- Layer 4

OS:StandardsInformation:Construction,
  {3d39d036-c9c5-470f-85f4-3f4fcdb521a2}, !- Handle
  {0eb77d23-a303-439c-adc6-ea2989d0080e}, !- Construction Name
  ExteriorWall,                           !- Intended Surface Type
  Mass;                                   !- Standards Construction Type

OS:Material,
  {2ebc2cad-026a-45c3-9f95-904275d5aa4e}, !- Handle
  1IN Stucco,                             !- Name
  Smooth,                                 !- Roughness
  0.0253,                                 !- Thickness {m}
  0.691799999999999,                      !- Conductivity {W/m-K}
  1858,                                   !- Density {kg/m3}
  836.999999999999,                       !- Specific Heat {J/kg-K}
  0.9,                                    !- Thermal Absorptance
  0.92,                                   !- Solar Absorptance
  0.92;                                   !- Visible Absorptance

OS:Material,
  {c0f1d0b9-5707-4938-b6a9-81e1e3883fa2}, !- Handle
  8IN Concrete HW,                        !- Name
  MediumRough,                            !- Roughness
  0.2033,                                 !- Thickness {m}
  1.72959999999999,                       !- Conductivity {W/m-K}
  2242.99999999999,                       !- Density {kg/m3}
  836.999999999999,                       !- Specific Heat {J/kg-K}
  0.9,                                    !- Thermal Absorptance
  0.65,                                   !- Solar Absorptance
  0.65;                                   !- Visible Absorptance

OS:Material,
  {34121419-9d5b-4d36-b82f-c7aedc81a246}, !- Handle
  Wall Insulation [31],                   !- Name
  MediumRough,                            !- Roughness
  0.0337000000000001,                     !- Thickness {m}
  0.0432,                                 !- Conductivity {W/m-K}
  91,                                     !- Density {kg/m3}
  836.999999999999,                       !- Specific Heat {J/kg-K}
  0.9,                                    !- Thermal Absorptance
  0.5,                                    !- Solar Absorptance
  0.5;                                    !- Visible Absorptance

OS:Construction,
  {b3c945e9-54bd-4ff3-9771-5f7567be9fc8}, !- Handle
  ASHRAE 189.1-2009 ExtWall Mass ClimateZone 2, !- Name
  ,                                       !- Surface Rendering Name
  {2ebc2cad-026a-45c3-9f95-904275d5aa4e}, !- Layer 1
  {c0f1d0b9-5707-4938-b6a9-81e1e3883fa2}, !- Layer 2
  {eeee861e-14db-450f-b234-1e395b9158b5}, !- Layer 3
  {baf821a4-1219-4e43-b18d-7f9ab23b3282}; !- Layer 4

OS:StandardsInformation:Construction,
  {4f0be4d2-1e8b-42d3-9d58-a37823e48a39}, !- Handle
  {b3c945e9-54bd-4ff3-9771-5f7567be9fc8}, !- Construction Name
  ExteriorWall,                           !- Intended Surface Type
  Mass;                                   !- Standards Construction Type

OS:Material,
  {eeee861e-14db-450f-b234-1e395b9158b5}, !- Handle
  Wall Insulation [35],                   !- Name
  MediumRough,                            !- Roughness
  0.0452,                                 !- Thickness {m}
  0.0432,                                 !- Conductivity {W/m-K}
  91,                                     !- Density {kg/m3}
  836.999999999999,                       !- Specific Heat {J/kg-K}
  0.9,                                    !- Thermal Absorptance
  0.5,                                    !- Solar Absorptance
  0.5;                                    !- Visible Absorptance

OS:Construction,
  {de80d682-9371-424c-8d1c-23e5f1ef4101}, !- Handle
  ASHRAE 189.1-2009 ExtWall Mass ClimateZone 3, !- Name
  ,                                       !- Surface Rendering Name
  {2ebc2cad-026a-45c3-9f95-904275d5aa4e}, !- Layer 1
  {c0f1d0b9-5707-4938-b6a9-81e1e3883fa2}, !- Layer 2
  {33a56a23-5028-4c15-85a7-c033c6f49193}, !- Layer 3
  {baf821a4-1219-4e43-b18d-7f9ab23b3282}; !- Layer 4

OS:StandardsInformation:Construction,
  {bb2f97a3-ceee-49db-a2d1-ec11f0487ca8}, !- Handle
  {de80d682-9371-424c-8d1c-23e5f1ef4101}, !- Construction Name
  ExteriorWall,                           !- Intended Surface Type
  Mass;                                   !- Standards Construction Type

OS:Material,
  {33a56a23-5028-4c15-85a7-c033c6f49193}, !- Handle
  Wall Insulation [36],                   !- Name
  MediumRough,                            !- Roughness
  0.0565999999999999,                     !- Thickness {m}
  0.0432,                                 !- Conductivity {W/m-K}
  91,                                     !- Density {kg/m3}
  836.999999999999,                       !- Specific Heat {J/kg-K}
  0.9,                                    !- Thermal Absorptance
  0.5,                                    !- Solar Absorptance
  0.5;                                    !- Visible Absorptance

OS:Construction,
  {69f08198-1a0a-485d-820b-6215e955fd9d}, !- Handle
  ASHRAE 189.1-2009 ExtWall Mass ClimateZone 4, !- Name
  ,                                       !- Surface Rendering Name
  {2ebc2cad-026a-45c3-9f95-904275d5aa4e}, !- Layer 1
  {c0f1d0b9-5707-4938-b6a9-81e1e3883fa2}, !- Layer 2
  {fe4631f3-e3fc-4050-97a7-166ff7ef5c77}, !- Layer 3
  {baf821a4-1219-4e43-b18d-7f9ab23b3282}; !- Layer 4

OS:StandardsInformation:Construction,
  {cc092265-d052-4837-86a7-3ba9e78069d4}, !- Handle
  {69f08198-1a0a-485d-820b-6215e955fd9d}, !- Construction Name
  ExteriorWall,                           !- Intended Surface Type
  Mass;                                   !- Standards Construction Type

OS:Material,
  {fe4631f3-e3fc-4050-97a7-166ff7ef5c77}, !- Handle
  Wall Insulation [37],                   !- Name
  MediumRough,                            !- Roughness
  0.0680999999999999,                     !- Thickness {m}
  0.0432,                                 !- Conductivity {W/m-K}
  91,                                     !- Density {kg/m3}
  836.999999999999,                       !- Specific Heat {J/kg-K}
  0.9,                                    !- Thermal Absorptance
  0.5,                                    !- Solar Absorptance
  0.5;                                    !- Visible Absorptance

OS:Construction,
  {e2434cec-9ed3-4273-a9b6-237cd375fafa}, !- Handle
  ASHRAE 189.1-2009 ExtWall Mass ClimateZone 5, !- Name
  ,                                       !- Surface Rendering Name
  {2ebc2cad-026a-45c3-9f95-904275d5aa4e}, !- Layer 1
  {c0f1d0b9-5707-4938-b6a9-81e1e3883fa2}, !- Layer 2
  {fcdd453a-2107-4213-8524-e27a7cfeee23}, !- Layer 3
  {baf821a4-1219-4e43-b18d-7f9ab23b3282}; !- Layer 4

OS:StandardsInformation:Construction,
  {71cd2716-7a07-47d3-8680-5319f4998ea6}, !- Handle
  {e2434cec-9ed3-4273-a9b6-237cd375fafa}, !- Construction Name
  ExteriorWall,                           !- Intended Surface Type
  Mass;                                   !- Standards Construction Type

OS:Material,
  {fcdd453a-2107-4213-8524-e27a7cfeee23}, !- Handle
  Wall Insulation [40],                   !- Name
  MediumRough,                            !- Roughness
  0.0793999999999999,                     !- Thickness {m}
  0.0432,                                 !- Conductivity {W/m-K}
  91,                                     !- Density {kg/m3}
  836.999999999999,                       !- Specific Heat {J/kg-K}
  0.9,                                    !- Thermal Absorptance
  0.5,                                    !- Solar Absorptance
  0.5;                                    !- Visible Absorptance

OS:Construction,
  {4b3b8fda-d5c2-439d-8390-946cff3e6f58}, !- Handle
  ASHRAE 189.1-2009 ExtWall Mass ClimateZone 6, !- Name
  ,                                       !- Surface Rendering Name
  {2ebc2cad-026a-45c3-9f95-904275d5aa4e}, !- Layer 1
  {c0f1d0b9-5707-4938-b6a9-81e1e3883fa2}, !- Layer 2
  {31fc88d8-f2ce-435a-ab90-948e63ea955e}, !- Layer 3
  {baf821a4-1219-4e43-b18d-7f9ab23b3282}; !- Layer 4

OS:StandardsInformation:Construction,
  {116e32ef-761d-44e8-8b0c-ac65114c49cf}, !- Handle
  {4b3b8fda-d5c2-439d-8390-946cff3e6f58}, !- Construction Name
  ExteriorWall,                           !- Intended Surface Type
  Mass;                                   !- Standards Construction Type

OS:Material,
  {31fc88d8-f2ce-435a-ab90-948e63ea955e}, !- Handle
  Wall Insulation [42],                   !- Name
  MediumRough,                            !- Roughness
  0.0913999999999999,                     !- Thickness {m}
  0.0432,                                 !- Conductivity {W/m-K}
  91,                                     !- Density {kg/m3}
  836.999999999999,                       !- Specific Heat {J/kg-K}
  0.9,                                    !- Thermal Absorptance
  0.5,                                    !- Solar Absorptance
  0.5;                                    !- Visible Absorptance

OS:Construction,
  {0af1e38f-030e-4489-84fe-779ccff6beb2}, !- Handle
  ASHRAE 189.1-2009 ExtWall Mass ClimateZone 7-8, !- Name
  ,                                       !- Surface Rendering Name
  {2ebc2cad-026a-45c3-9f95-904275d5aa4e}, !- Layer 1
  {c0f1d0b9-5707-4938-b6a9-81e1e3883fa2}, !- Layer 2
  {ad339979-3891-49ed-9934-16f87f9c7084}, !- Layer 3
  {baf821a4-1219-4e43-b18d-7f9ab23b3282}; !- Layer 4

OS:StandardsInformation:Construction,
  {5d1a95fe-9f95-4687-ae06-d0831bd46091}, !- Handle
  {0af1e38f-030e-4489-84fe-779ccff6beb2}, !- Construction Name
  ExteriorWall,                           !- Intended Surface Type
  Mass;                                   !- Standards Construction Type

OS:Material,
  {ad339979-3891-49ed-9934-16f87f9c7084}, !- Handle
  Wall Insulation [44],                   !- Name
  MediumRough,                            !- Roughness
  0.1104,                                 !- Thickness {m}
  0.0432,                                 !- Conductivity {W/m-K}
  91,                                     !- Density {kg/m3}
  836.999999999999,                       !- Specific Heat {J/kg-K}
  0.9,                                    !- Thermal Absorptance
  0.5,                                    !- Solar Absorptance
  0.5;                                    !- Visible Absorptance

OS:Construction,
  {1183de50-34d0-4e4f-ba2b-2c9b7b88e9a6}, !- Handle
  ASHRAE 189.1-2009 ExtWall Mass ClimateZone alt-res 1, !- Name
  ,                                       !- Surface Rendering Name
  {2ebc2cad-026a-45c3-9f95-904275d5aa4e}, !- Layer 1
  {c0f1d0b9-5707-4938-b6a9-81e1e3883fa2}, !- Layer 2
  {eeee861e-14db-450f-b234-1e395b9158b5}, !- Layer 3
  {baf821a4-1219-4e43-b18d-7f9ab23b3282}; !- Layer 4

OS:StandardsInformation:Construction,
  {433946ad-cd2c-4c08-8d37-55b3f3977798}, !- Handle
  {1183de50-34d0-4e4f-ba2b-2c9b7b88e9a6}, !- Construction Name
  ExteriorWall,                           !- Intended Surface Type
  Mass;                                   !- Standards Construction Type

OS:Construction,
  {9f38d3da-09da-40e2-9244-ca1daa764f62}, !- Handle
  ASHRAE 189.1-2009 ExtWall Mass ClimateZone alt-res 2, !- Name
  ,                                       !- Surface Rendering Name
  {2ebc2cad-026a-45c3-9f95-904275d5aa4e}, !- Layer 1
  {c0f1d0b9-5707-4938-b6a9-81e1e3883fa2}, !- Layer 2
  {33a56a23-5028-4c15-85a7-c033c6f49193}, !- Layer 3
  {baf821a4-1219-4e43-b18d-7f9ab23b3282}; !- Layer 4

OS:StandardsInformation:Construction,
  {b0f3fe40-bf79-418e-a5d6-cc59e0c08b3f}, !- Handle
  {9f38d3da-09da-40e2-9244-ca1daa764f62}, !- Construction Name
  ExteriorWall,                           !- Intended Surface Type
  Mass;                                   !- Standards Construction Type

OS:Construction,
  {0d76ff28-684a-4574-8aec-4a41612ddea6}, !- Handle
  ASHRAE 189.1-2009 ExtWall Mass ClimateZone alt-res 3, !- Name
  ,                                       !- Surface Rendering Name
  {2ebc2cad-026a-45c3-9f95-904275d5aa4e}, !- Layer 1
  {c0f1d0b9-5707-4938-b6a9-81e1e3883fa2}, !- Layer 2
  {fe4631f3-e3fc-4050-97a7-166ff7ef5c77}, !- Layer 3
  {baf821a4-1219-4e43-b18d-7f9ab23b3282}; !- Layer 4

OS:StandardsInformation:Construction,
  {c6c0247d-4bf3-4d73-af17-218dba6fa7c2}, !- Handle
  {0d76ff28-684a-4574-8aec-4a41612ddea6}, !- Construction Name
  ExteriorWall,                           !- Intended Surface Type
  Mass;                                   !- Standards Construction Type

OS:Construction,
  {09fd260d-dc56-4c14-b25f-d2d978e09163}, !- Handle
  ASHRAE 189.1-2009 ExtWall Mass ClimateZone alt-res 4, !- Name
  ,                                       !- Surface Rendering Name
  {2ebc2cad-026a-45c3-9f95-904275d5aa4e}, !- Layer 1
  {c0f1d0b9-5707-4938-b6a9-81e1e3883fa2}, !- Layer 2
  {fcdd453a-2107-4213-8524-e27a7cfeee23}, !- Layer 3
  {baf821a4-1219-4e43-b18d-7f9ab23b3282}; !- Layer 4

OS:StandardsInformation:Construction,
  {adbc7f3c-7fe6-4c17-b05e-dbefce65808e}, !- Handle
  {09fd260d-dc56-4c14-b25f-d2d978e09163}, !- Construction Name
  ExteriorWall,                           !- Intended Surface Type
  Mass;                                   !- Standards Construction Type

OS:Construction,
  {69d8754f-4f10-474c-a829-5f6464497e96}, !- Handle
  ASHRAE 189.1-2009 ExtWall Mass ClimateZone alt-res 5, !- Name
  ,                                       !- Surface Rendering Name
  {2ebc2cad-026a-45c3-9f95-904275d5aa4e}, !- Layer 1
  {c0f1d0b9-5707-4938-b6a9-81e1e3883fa2}, !- Layer 2
  {31fc88d8-f2ce-435a-ab90-948e63ea955e}, !- Layer 3
  {baf821a4-1219-4e43-b18d-7f9ab23b3282}; !- Layer 4

OS:StandardsInformation:Construction,
  {7a99f316-4358-45dd-b217-a91545a524c4}, !- Handle
  {69d8754f-4f10-474c-a829-5f6464497e96}, !- Construction Name
  ExteriorWall,                           !- Intended Surface Type
  Mass;                                   !- Standards Construction Type

OS:Construction,
  {2294ce21-4eab-4d12-8b39-98ebece1302f}, !- Handle
  ASHRAE 189.1-2009 ExtWall Mass ClimateZone alt-res 6, !- Name
  ,                                       !- Surface Rendering Name
  {2ebc2cad-026a-45c3-9f95-904275d5aa4e}, !- Layer 1
  {c0f1d0b9-5707-4938-b6a9-81e1e3883fa2}, !- Layer 2
  {ad339979-3891-49ed-9934-16f87f9c7084}, !- Layer 3
  {baf821a4-1219-4e43-b18d-7f9ab23b3282}; !- Layer 4

OS:StandardsInformation:Construction,
  {78146d12-7862-4925-842a-0c3afa1ac852}, !- Handle
  {2294ce21-4eab-4d12-8b39-98ebece1302f}, !- Construction Name
  ExteriorWall,                           !- Intended Surface Type
  Mass;                                   !- Standards Construction Type

OS:Construction,
  {77ad3697-0a31-4893-909d-5eb52aac10f0}, !- Handle
  ASHRAE 189.1-2009 ExtWall Mass ClimateZone alt-res 7, !- Name
  ,                                       !- Surface Rendering Name
  {2ebc2cad-026a-45c3-9f95-904275d5aa4e}, !- Layer 1
  {c0f1d0b9-5707-4938-b6a9-81e1e3883fa2}, !- Layer 2
  {ad339979-3891-49ed-9934-16f87f9c7084}, !- Layer 3
  {baf821a4-1219-4e43-b18d-7f9ab23b3282}; !- Layer 4

OS:StandardsInformation:Construction,
  {8ef7ac79-4c4c-4db0-8799-f46227171fa0}, !- Handle
  {77ad3697-0a31-4893-909d-5eb52aac10f0}, !- Construction Name
  ExteriorWall,                           !- Intended Surface Type
  Mass;                                   !- Standards Construction Type

OS:Construction,
  {c1c51247-23a5-4d20-9b6a-f229ffb4c628}, !- Handle
  ASHRAE 189.1-2009 ExtWall Mass ClimateZone alt-res 8, !- Name