
OS:Version,
  {9545614b-7fda-4f31-9659-5ddf2dd766e2}, !- Handle
  1.3.0;                                  !- Version Identifier

OS:SpaceType,
  {a7add399-372e-443d-8845-f1bd4bc0f9ec}, !- Handle
  189.1-2009 - Office - BreakRoom - CZ1-3, !- Name
  ,                                       !- Default Construction Set Name
  {e616e917-6034-42ca-860a-cd0415e37d16}, !- Default Schedule Set Name
  {aedb964f-eb50-464e-9c9d-48200ef74b2b}, !- Group Rendering Name
  {e319a77c-70f8-4732-9ec1-382acf87067f}, !- Design Specification Outdoor Air Object Name
  Office,                                 !- Standards Building Type
  BreakRoom;                              !- Standards Space Type

OS:Rendering:Color,
  {aedb964f-eb50-464e-9c9d-48200ef74b2b}, !- Handle
  Rendering Color 1,                      !- Name
  230,                                    !- Rendering Red Value
  157,                                    !- Rendering Green Value
  120;                                    !- Rendering Blue Value

OS:DefaultScheduleSet,
  {e616e917-6034-42ca-860a-cd0415e37d16}, !- Handle
  189.1-2009 - Office - BreakRoom - CZ1-3 Schedule Set, !- Name
  ,                                       !- Hours of Operation Schedule Name
  {e36a6f68-77fa-4384-a5fb-9463bee9cce5}, !- Number of People Schedule Name
  {97b80d99-3e51-4fed-a4d0-0d1fba4cc07e}, !- People Activity Level Schedule Name
  {7b66e4f3-335b-4b36-8fb5-51c057e9db33}, !- Lighting Schedule Name
  {fb9fe5ff-d281-4574-8420-8b2edf947775}, !- Electric Equipment Schedule Name
  ,                                       !- Gas Equipment Schedule Name
  ,                                       !- Hot Water Equipment Schedule Name
  {17feeb54-bb8d-40c8-9a0c-c34c0f941425}, !- Infiltration Schedule Name
  ,                                       !- Steam Equipment Schedule Name
  ;                                       !- Other Equipment Schedule Name

OS:Lights:Definition,
  {8ccf943f-ae43-4c4e-99ac-4ddaceb1e987}, !- Handle
  189.1-2009 - Office - BreakRoom - CZ1-3 Lights Definition, !- Name
  Watts/Area,                             !- Design Level Calculation Method
  ,                                       !- Lighting Level {W}
  11.6250232500465,                       !- Watts per Space Floor Area {W/m2}
  ;                                       !- Watts per Person {W/person}

OS:Lights,
  {b748f3a9-2d10-4e8b-b726-60c26ba2ca30}, !- Handle
  189.1-2009 - Office - BreakRoom - CZ1-3 Lights, !- Name
  {8ccf943f-ae43-4c4e-99ac-4ddaceb1e987}, !- Lights Definition Name
  {a7add399-372e-443d-8845-f1bd4bc0f9ec}; !- Space or SpaceType Name

OS:Schedule:Ruleset,
  {7b66e4f3-335b-4b36-8fb5-51c057e9db33}, ! Handle
  Office Bldg Light,                      ! Name
  {0b42bea1-8c7a-4e73-984a-0ba085295e9b}, ! Schedule Type Limits Name
  {61ca0365-9a4a-4035-ac55-a9c18497f959}, ! Default Day Schedule Name
  {d0f03645-373a-49fd-b04f-cd98f804eb7e}, ! Summer Design Day Schedule Name
  {1fbe6df0-3c99-4b85-8f67-2be2f3ad592c}; ! Winter Design Day Schedule Name

OS:ScheduleTypeLimits,
  {0b42bea1-8c7a-4e73-984a-0ba085295e9b}, ! Handle
  Fraction,                               ! Name
  0,                                      ! Lower Limit Value
  1,                                      ! Upper Limit Value
  CONTINUOUS;                             ! Numeric Type

OS:Schedule:Day,
  {61ca0365-9a4a-4035-ac55-a9c18497f959}, ! Handle
  Office Bldg Light Default Schedule,     ! Name
  {0b42bea1-8c7a-4e73-984a-0ba085295e9b}, ! Schedule Type Limits Name
  ,                                       ! Interpolate to Timestep
  5,                                      !- Hour 1
  0,                                      !- Minute 1
  0.05,                                   !- Value Until Time 1
  7,                                      !- Hour 2
  0,                                      !- Minute 2
  0.1,                                    !- Value Until Time 2
  8,                                      !- Hour 3
  0,                                      !- Minute 3
  0.3,                                    !- Value Until Time 3
  17,                                     !- Hour 4
  0,                                      !- Minute 4
  0.9,                                    !- Value Until Time 4
  18,                                     !- Hour 5
  0,                                      !- Minute 5
  0.7,                                    !- Value Until Time 5
  20,                                     !- Hour 6
  0,                                      !- Minute 6
  0.5,                                    !- Value Until Time 6
  22,                                     !- Hour 7
  0,                                      !- Minute 7
  0.3,                                    !- Value Until Time 7
  23,                                     !- Hour 8
  0,                                      !- Minute 8
  0.1,                                    !- Value Until Time 8
  24,                                     !- Hour 9
  0,                                      !- Minute 9
  0.05;                                   !- Value Until Time 9

OS:Schedule:Day,
  {d0f03645-373a-49fd-b04f-cd98f804eb7e}, ! Handle
  Office Bldg Light Summer Design Day,    ! Name
  {0b42bea1-8c7a-4e73-984a-0ba085295e9b}, ! Schedule Type Limits Name
  ,                                       ! Interpolate to Timestep
  24,                                     ! Hour 1
  0,                                      ! Minute 1
  1;                                      ! Value Until Time 1

OS:Schedule:Day,
  {1fbe6df0-3c99-4b85-8f67-2be2f3ad592c}, ! Handle
  Office Bldg Light Winter Design Day,    ! Name
  {0b42bea1-8c7a-4e73-984a-0ba085295e9b}, ! Schedule Type Limits Name
  ,                                       ! Interpolate to Timestep
  24,                                     ! Hour 1
  0,                                      ! Minute 1
  0;                                      ! Value Until Time 1

OS:Schedule:Rule,
  {8ed15db3-3b90-4077-8e8f-f65877a5c9c4}, ! Handle
  Office Bldg Light Rule 1,               ! Name
  {7b66e4f3-335b-4b36-8fb5-51c057e9db33}, ! Schedule Ruleset Name
  0,                                      ! Rule Order
  {ef76b94c-1873-42d3-a7d8-d666c23554aa}, ! Day Schedule Name
  Yes,                                    ! Apply Sunday
  No,                                     ! Apply Monday
  No,                                     ! Apply Tuesday
  No,                                     ! Apply Wednesday
  No,                                     ! Apply Thursday
  No,                                     ! Apply Friday
  No,                                     ! Apply Saturday
  ,                                       ! Apply Holiday
  DateRange,                              ! Date Specification Type
  1,                                      ! Start Month
  1,                                      ! Start Day
  12,                                     ! End Month
  31;                                     ! End Day

OS:Schedule:Day,
  {ef76b94c-1873-42d3-a7d8-d666c23554aa}, ! Handle
  Office Bldg Light Rule 1 Day Schedule,  ! Name
  {0b42bea1-8c7a-4e73-984a-0ba085295e9b}, ! Schedule Type Limits Name
  ,                                       ! Interpolate to Timestep
  24,                                     ! Hour 1
  0,                                      ! Minute 1
  0.050000000000000003;                   ! Value Until Time 1

OS:Schedule:Rule,
  {adfbf831-22d2-4027-afcd-271971b0d4f7}, ! Handle
  Office Bldg Light Rule 2,               ! Name
  {7b66e4f3-335b-4b36-8fb5-51c057e9db33}, ! Schedule Ruleset Name
  1,                                      ! Rule Order
  {ca727cdc-c32b-49fe-bfad-1000d642623e}, ! Day Schedule Name
  No,                                     ! Apply Sunday
  No,                                     ! Apply Monday
  No,                                     ! Apply Tuesday
  No,                                     ! Apply Wednesday
  No,                                     ! Apply Thursday
  No,                                     ! Apply Friday
  Yes,                                    ! Apply Saturday
  ,                                       ! Apply Holiday
  DateRange,                              ! Date Specification Type
  1,                                      ! Start Month
  1,                                      ! Start Day
  12,                                     ! End Month
  31;                                     ! End Day

OS:Schedule:Day,
  {ca727cdc-c32b-49fe-bfad-1000d642623e}, ! Handle
  Office Bldg Light Rule 2 Day Schedule,  ! Name
  {0b42bea1-8c7a-4e73-984a-0ba085295e9b}, ! Schedule Type Limits Name
  ,                                       ! Interpolate to Timestep
  6,                                      ! Hour 1
  0,                                      ! Minute 1
  0.050000000000000003,                   ! Value Until Time 1
  8,                                      ! Hour 2
  0,                                      ! Minute 2
  0.10000000000000001,                    ! Value Until Time 2
  14,                                     ! Hour 3
  0,                                      ! Minute 3
  0.5,                                    ! Value Until Time 3
  17,                                     ! Hour 4
  0,                                      ! Minute 4
  0.14999999999999999,                    ! Value Until Time 4
  24,                                     ! Hour 5
  0,                                      ! Minute 5
  0.050000000000000003;                   ! Value Until Time 5

OS:DesignSpecification:OutdoorAir,
  {e319a77c-70f8-4732-9ec1-382acf87067f}, !- Handle
  189.1-2009 - Office - BreakRoom - CZ1-3 Ventilation, !- Name
  Sum,                                    !- Outdoor Air Method
  0.007079211648,                         !- Outdoor Air Flow per Person {m3/s-person}
  ,                                       !- Outdoor Air Flow per Floor Area {m3/s-m2}
  ,                                       !- Outdoor Air Flow Rate {m3/s}
  ,                                       !- Outdoor Air Flow Air Changes per Hour {1/hr}
  ;                                       !- Outdoor Air Flow Rate Fraction Schedule Name

OS:People:Definition,
  {4b8a589d-afa6-4e96-b486-7ae8ef90343f}, !- Handle
  189.1-2009 - Office - BreakRoom - CZ1-3 People Definition, !- Name
  People/Area,                            !- Number of People Calculation Method
  ,                                       !- Number of People {people}
  0.538195520835486,                      !- People per Space Floor Area {person/m2}
  ,                                       !- Space Floor Area per Person {m2/person}
  0.3;                                    !- Fraction Radiant

OS:People,
  {80f7cd89-8f2d-4883-a183-b6be78d952ed}, !- Handle
  189.1-2009 - Office - BreakRoom - CZ1-3 People, !- Name
  {4b8a589d-afa6-4e96-b486-7ae8ef90343f}, !- People Definition Name
  {a7add399-372e-443d-8845-f1bd4bc0f9ec}; !- Space or SpaceType Name

OS:Schedule:Ruleset,
  {e36a6f68-77fa-4384-a5fb-9463bee9cce5}, ! Handle
  Office Misc Occ,                        ! Name
  {0b42bea1-8c7a-4e73-984a-0ba085295e9b}, ! Schedule Type Limits Name
  {5b2fab88-05de-4734-8cb4-3dbe124c8f08}, ! Default Day Schedule Name
  {38a28bbc-9440-453d-a1fd-e2af6cdb3d49}, ! Summer Design Day Schedule Name
  {9cc34f24-09aa-4eec-9197-7bb4c101aaa7}; ! Winter Design Day Schedule Name

OS:Schedule:Day,
  {5b2fab88-05de-4734-8cb4-3dbe124c8f08}, ! Handle
  Office Bldg Occ Default Schedule 1,     ! Name
  {0b42bea1-8c7a-4e73-984a-0ba085295e9b}, ! Schedule Type Limits Name
  ,                                       ! Interpolate to Timestep
  6,                                      !- Hour 1
  0,                                      !- Minute 1
  0,                                      !- Value Until Time 1
  7,                                      !- Hour 2
  0,                                      !- Minute 2
  0.100000001490116,                      !- Value Until Time 2
  8,                                      !- Hour 3
  0,                                      !- Minute 3
  0.200000002980232,                      !- Value Until Time 3
  20,                                     !- Hour 4
  0,                                      !- Minute 4
  0.400000005960464,                      !- Value Until Time 4
  22,                                     !- Hour 5
  0,                                      !- Minute 5
  0.100000001490116,                      !- Value Until Time 5
  24,                                     !- Hour 6
  0,                                      !- Minute 6
  0.0500000007450581;                     !- Value Until Time 6

OS:Schedule:Day,
  {38a28bbc-9440-453d-a1fd-e2af6cdb3d49}, ! Handle
  Office Bldg Occ Summer Design Day 1,    ! Name
  {0b42bea1-8c7a-4e73-984a-0ba085295e9b}, ! Schedule Type Limits Name
  ,                                       ! Interpolate to Timestep
  6,                                      ! Hour 1
  0,                                      ! Minute 1
  0,                                      ! Value Until Time 1
  22,                                     ! Hour 2
  0,                                      ! Minute 2
  1,                                      ! Value Until Time 2
  24,                                     ! Hour 3
  0,                                      ! Minute 3
  0.050000000000000003;                   ! Value Until Time 3

OS:Schedule:Day,
  {9cc34f24-09aa-4eec-9197-7bb4c101aaa7}, ! Handle
  Office Bldg Occ Winter Design Day 1,    ! Name
  {0b42bea1-8c7a-4e73-984a-0ba085295e9b}, ! Schedule Type Limits Name
  ,                                       ! Interpolate to Timestep
  24,                                     ! Hour 1
  0,                                      ! Minute 1
  0;                                      ! Value Until Time 1

OS:Schedule:Rule,
  {85b4c471-de38-43da-a233-71e8cf10c8dd}, ! Handle
  Office Misc Occ Rule 1,                 ! Name
  {e36a6f68-77fa-4384-a5fb-9463bee9cce5}, ! Schedule Ruleset Name
  0,                                      ! Rule Order
  {53b51d4c-0a8c-4b5d-a4de-f55aa156ae72}, ! Day Schedule Name
  Yes,                                    ! Apply Sunday
  No,                                     ! Apply Monday
  No,                                     ! Apply Tuesday
  No,                                     ! Apply Wednesday
  No,                                     ! Apply Thursday
  No,                                     ! Apply Friday
  No,                                     ! Apply Saturday
  ,                                       ! Apply Holiday
  DateRange,                              ! Date Specification Type
  1,                                      ! Start Month
  1,                                      ! Start Day
  12,                                     ! End Month
  31;                                     ! End Day

OS:Schedule:Day,
  {53b51d4c-0a8c-4b5d-a4de-f55aa156ae72}, ! Handle
  Office Bldg Occ Rule 1 Day Schedule 1,  ! Name
  {0b42bea1-8c7a-4e73-984a-0ba085295e9b}, ! Schedule Type Limits Name
  ,                                       ! Interpolate to Timestep
  24,                                     ! Hour 1
  0,                                      ! Minute 1
  0;                                      ! Value Until Time 1

OS:Schedule:Rule,
  {428044e1-22a0-40e5-9f2d-d166e0bfc54c}, ! Handle
  Office Misc Occ Rule 2,                 ! Name
  {e36a6f68-77fa-4384-a5fb-9463bee9cce5}, ! Schedule Ruleset Name
  1,                                      ! Rule Order
  {44e115e6-4d07-4e1f-94d3-f40a7d77e280}, ! Day Schedule Name
  No,                                     ! Apply Sunday
  No,                                     ! Apply Monday
  No,                                     ! Apply Tuesday
  No,                                     ! Apply Wednesday
  No,                                     ! Apply Thursday
  No,                                     ! Apply Friday
  Yes,                                    ! Apply Saturday
  ,                                       ! Apply Holiday
  DateRange,                              ! Date Specification Type
  1,                                      ! Start Month
  1,                                      ! Start Day
  12,                                     ! End Month
  31;                                     ! End Day

OS:Schedule:Day,
  {44e115e6-4d07-4e1f-94d3-f40a7d77e280}, ! Handle
  Office Bldg Occ Rule 2 Day Schedule 1,  ! Name
  {0b42bea1-8c7a-4e73-984a-0ba085295e9b}, ! Schedule Type Limits Name
  ,                                       ! Interpolate to Timestep
  6,                                      !- Hour 1
  0,                                      !- Minute 1
  0,                                      !- Value Until Time 1
  8,                                      !- Hour 2
  0,                                      !- Minute 2
  0.100000001490116,                      !- Value Until Time 2
  14,                                     !- Hour 3
  0,                                      !- Minute 3
  0.25,                                   !- Value Until Time 3
  17,                                     !- Hour 4
  0,                                      !- Minute 4
  0.100000001490116,                      !- Value Until Time 4
  24,                                     !- Hour 5
  0,                                      !- Minute 5
  0;                                      !- Value Until Time 5

OS:Schedule:Ruleset,
  {97b80d99-3e51-4fed-a4d0-0d1fba4cc07e}, ! Handle
  Office Activity,                        ! Name
  {9facda4a-1f55-4db7-a9bd-a47c5a28fa4d}, ! Schedule Type Limits Name
  {a739f292-881a-4773-ab10-883c1f7cecf6}, ! Default Day Schedule Name
  {c9bf4610-fde3-4b80-b630-f7f294175e8e}, ! Summer Design Day Schedule Name
  {aae61424-e998-4e5b-9b54-f2c7109fe978}; ! Winter Design Day Schedule Name

OS:ScheduleTypeLimits,
  {9facda4a-1f55-4db7-a9bd-a47c5a28fa4d}, !- Handle
  ActivityLevel,                          !- Name
  0,                                      !- Lower Limit Value {BasedOnField A4}
  ,                                       !- Upper Limit Value {BasedOnField A4}
  Continuous,                             !- Numeric Type
  ActivityLevel;                          !- Unit Type

OS:Schedule:Day,
  {a739f292-881a-4773-ab10-883c1f7cecf6}, ! Handle
  Office Activity Default Schedule,       ! Name
  {9facda4a-1f55-4db7-a9bd-a47c5a28fa4d}, ! Schedule Type Limits Name
  ,                                       ! Interpolate to Timestep
  24,                                     !- Hour 1
  0,                                      !- Minute 1
  132;                                    !- Value Until Time 1

OS:Schedule:Day,
  {c9bf4610-fde3-4b80-b630-f7f294175e8e}, ! Handle
  Office Activity Summer Design Day,      ! Name
  {9facda4a-1f55-4db7-a9bd-a47c5a28fa4d}, ! Schedule Type Limits Name
  ,                                       ! Interpolate to Timestep
  24,                                     !- Hour 1
  0,                                      !- Minute 1
  132;                                    !- Value Until Time 1

OS:Schedule:Day,
  {aae61424-e998-4e5b-9b54-f2c7109fe978}, ! Handle
  Office Activity Winter Design Day,      ! Name
  {9facda4a-1f55-4db7-a9bd-a47c5a28fa4d}, ! Schedule Type Limits Name
  ,                                       ! Interpolate to Timestep
  24,                                     !- Hour 1
  0,                                      !- Minute 1
  132;                                    !- Value Until Time 1

OS:SpaceInfiltration:DesignFlowRate,
  {fd88d4f8-24db-4b6e-bfcd-f095b915d296}, !- Handle
  189.1-2009 - Office - BreakRoom - CZ1-3 Infiltration, !- Name
  {a7add399-372e-443d-8845-f1bd4bc0f9ec}, !- Space or SpaceType Name
  ,                                       !- Schedule Name
  Flow/ExteriorArea,                      !- Design Flow Rate Calculation Method
  ,                                       !- Design Flow Rate {m3/s}
  ,                                       !- Flow per Space Floor Area {m3/s-m2}
  0.00030226,                             !- Flow per Exterior Surface Area {m3/s-m2}
  ,                                       !- Air Changes per Hour {1/hr}
  ,                                       !- Constant Term Coefficient
  ,                                       !- Temperature Term Coefficient
  ,                                       !- Velocity Term Coefficient
  ;                                       !- Velocity Squared Term Coefficient

OS:Schedule:Ruleset,
  {17feeb54-bb8d-40c8-9a0c-c34c0f941425}, ! Handle
  Office Infil Quarter On,                ! Name
  {0b42bea1-8c7a-4e73-984a-0ba085295e9b}, ! Schedule Type Limits Name
  {6de9ca91-ac89-4757-9875-27839e7451eb}, ! Default Day Schedule Name
  {dca24918-e5bd-4e76-82a9-63a2e7062999}, ! Summer Design Day Schedule Name
  {121051e3-1e70-4e60-b0b2-8d1746ed2f17}; ! Winter Design Day Schedule Name

OS:Schedule:Day,
  {6de9ca91-ac89-4757-9875-27839e7451eb}, ! Handle
  Office Infil Quarter On Default Schedule, ! Name
  {0b42bea1-8c7a-4e73-984a-0ba085295e9b}, ! Schedule Type Limits Name
  ,                                       ! Interpolate to Timestep
  6,                                      !- Hour 1
  0,                                      !- Minute 1
  1,                                      !- Value Until Time 1
  22,                                     !- Hour 2
  0,                                      !- Minute 2
  0.25,                                   !- Value Until Time 2
  24,                                     !- Hour 3
  0,                                      !- Minute 3
  1;                                      !- Value Until Time 3

OS:Schedule:Day,
  {dca24918-e5bd-4e76-82a9-63a2e7062999}, ! Handle
  Office Infil Quarter On Summer Design Day, ! Name
  {0b42bea1-8c7a-4e73-984a-0ba085295e9b}, ! Schedule Type Limits Name
  ,                                       ! Interpolate to Timestep
  6,                                      ! Hour 1
  0,                                      ! Minute 1
  1,                                      ! Value Until Time 1
  22,                                     ! Hour 2
  0,                                      ! Minute 2
  0.25,                                   ! Value Until Time 2
  24,                                     ! Hour 3
  0,                                      ! Minute 3
  1;                                      ! Value Until Time 3

OS:Schedule:Day,
  {121051e3-1e70-4e60-b0b2-8d1746ed2f17}, ! Handle
  Office Infil Quarter On Winter Design Day, ! Name
  {0b42bea1-8c7a-4e73-984a-0ba085295e9b}, ! Schedule Type Limits Name
  ,                                       ! Interpolate to Timestep
  6,                                      ! Hour 1
  0,                                      ! Minute 1
  1,                                      ! Value Until Time 1
  18,                                     ! Hour 2
  0,                                      ! Minute 2
  0.25,                                   ! Value Until Time 2
  24,                                     ! Hour 3
  0,                                      ! Minute 3
  1;                                      ! Value Until Time 3

OS:Schedule:Rule,
  {8955fe1d-9b2b-44f1-9c2b-3095e2885bd4}, ! Handle
  Office Infil Quarter On Rule 1,         ! Name
  {17feeb54-bb8d-40c8-9a0c-c34c0f941425}, ! Schedule Ruleset Name
  0,                                      ! Rule Order
  {9cda3a17-498f-4d1d-8341-3d6fc543939e}, ! Day Schedule Name
  Yes,                                    ! Apply Sunday
  No,                                     ! Apply Monday
  No,                                     ! Apply Tuesday
  No,                                     ! Apply Wednesday
  No,                                     ! Apply Thursday
  No,                                     ! Apply Friday
  No,                                     ! Apply Saturday
  ,                                       ! Apply Holiday
  DateRange,                              ! Date Specification Type
  1,                                      ! Start Month
  1,                                      ! Start Day
  12,                                     ! End Month
  31;                                     ! End Day

OS:Schedule:Day,
  {9cda3a17-498f-4d1d-8341-3d6fc543939e}, ! Handle
  Office Infil Quarter On Rule 1 Day Schedule, ! Name
  {0b42bea1-8c7a-4e73-984a-0ba085295e9b}, ! Schedule Type Limits Name
  ,                                       ! Interpolate to Timestep
  24,                                     ! Hour 1
  0,                                      ! Minute 1
  1;                                      ! Value Until Time 1

OS:Schedule:Rule,
  {971987a5-37e4-4145-97d2-a148462f9285}, ! Handle
  Office Infil Quarter On Rule 2,         ! Name
  {17feeb54-bb8d-40c8-9a0c-c34c0f941425}, ! Schedule Ruleset Name
  1,                                      ! Rule Order
  {f91d09cb-fdf9-43ca-9bbc-87efd92c63db}, ! Day Schedule Name
  No,                                     ! Apply Sunday
  No,                                     ! Apply Monday
  No,                                     ! Apply Tuesday
  No,                                     ! Apply Wednesday
  No,                                     ! Apply Thursday
  No,                                     ! Apply Friday
  Yes,                                    ! Apply Saturday
  ,                                       ! Apply Holiday
  DateRange,                              ! Date Specification Type
  1,                                      ! Start Month
  1,                                      ! Start Day
  12,                                     ! End Month
  31;                                     ! End Day

OS:Schedule:Day,
  {f91d09cb-fdf9-43ca-9bbc-87efd92c63db}, ! Handle
  Office Infil Quarter On Rule 2 Day Schedule, ! Name
  {0b42bea1-8c7a-4e73-984a-0ba085295e9b}, ! Schedule Type Limits Name
  ,                                       ! Interpolate to Timestep
  6,                                      ! Hour 1
  0,                                      ! Minute 1
  1,                                      ! Value Until Time 1
  18,                                     ! Hour 2
  0,                                      ! Minute 2
  0.25,                                   ! Value Until Time 2
  24,                                     ! Hour 3
  0,                                      ! Minute 3
  1;                                      ! Value Until Time 3

OS:ElectricEquipment:Definition,
  {b45fc3b6-508b-4c44-aa1c-2c7e233e8082}, !- Handle
  189.1-2009 - Office - BreakRoom - CZ1-3 Electric Equipment Definition, !- Name
  Watts/Area,                             !- Design Level Calculation Method
  ,                                       !- Design Level {W}
  48.0070404585254,                       !- Watts per Space Floor Area {W/m2}
  ;                                       !- Watts per Person {W/person}

OS:ElectricEquipment,
  {ff495b4e-8291-4b19-a3ba-4672e5c57e56}, !- Handle
  189.1-2009 - Office - BreakRoom - CZ1-3 Electric Equipment, !- Name
  {b45fc3b6-508b-4c44-aa1c-2c7e233e8082}, !- Electric Equipment Definition Name
  {a7add399-372e-443d-8845-f1bd4bc0f9ec}; !- Space or SpaceType Name

OS:Schedule:Ruleset,
  {fb9fe5ff-d281-4574-8420-8b2edf947775}, ! Handle
  Office Bldg Equip,                      ! Name
  {0b42bea1-8c7a-4e73-984a-0ba085295e9b}, ! Schedule Type Limits Name
  {69462244-e2d5-428c-bad9-3e816a0e58db}, ! Default Day Schedule Name
  {26d52a75-6ab1-4995-a1a6-832b9d549d48}, ! Summer Design Day Schedule Name
  {ff472b3f-72bd-4470-b91c-5ddfa5992181}; ! Winter Design Day Schedule Name

OS:Schedule:Day,
  {69462244-e2d5-428c-bad9-3e816a0e58db}, ! Handle
  Office Bldg Equip Default Schedule,     ! Name
  {0b42bea1-8c7a-4e73-984a-0ba085295e9b}, ! Schedule Type Limits Name
  ,                                       ! Interpolate to Timestep
  8,                                      !- Hour 1
  0,                                      !- Minute 1
  0.4,                                    !- Value Until Time 1
  12,                                     !- Hour 2
  0,                                      !- Minute 2
  0.9,                                    !- Value Until Time 2
  13,                                     !- Hour 3
  0,                                      !- Minute 3
  0.8,                                    !- Value Until Time 3
  17,                                     !- Hour 4
  0,                                      !- Minute 4
  0.9,                                    !- Value Until Time 4
  18,                                     !- Hour 5
  0,                                      !- Minute 5
  0.8,                                    !- Value Until Time 5
  20,                                     !- Hour 6
  0,                                      !- Minute 6
  0.6,                                    !- Value Until Time 6
  22,                                     !- Hour 7
  0,                                      !- Minute 7
  0.5,                                    !- Value Until Time 7
  24,                                     !- Hour 8
  0,                                      !- Minute 8
  0.4;                                    !- Value Until Time 8

OS:Schedule:Day,
  {26d52a75-6ab1-4995-a1a6-832b9d549d48}, ! Handle