
OS:Version,
  {9815782c-de1b-4f69-addc-df496abac13e}, !- Handle
  1.3.3;                                  !- Version Identifier

OS:SpaceType,
  {1d07ab1f-6c33-41ea-ab33-ec812d3331bd}, !- Handle
  189.1-2009 - Office - BreakRoom - CZ1-3, !- Name
  ,                                       !- Default Construction Set Name
  {a14dc07b-5f2e-456b-8718-af160a92fea7}, !- Default Schedule Set Name
  {528673c8-9d25-4941-8d88-b097c26e539f}, !- Group Rendering Name
  {4df2110b-428e-42e6-b1b3-0fa8a8b29ce1}, !- Design Specification Outdoor Air Object Name
  Office,                                 !- Standards Building Type
  BreakRoom;                              !- Standards Space Type

OS:Rendering:Color,
  {528673c8-9d25-4941-8d88-b097c26e539f}, !- Handle
  Rendering Color 1,                      !- Name
  230,                                    !- Rendering Red Value
  157,                                    !- Rendering Green Value
  120;                                    !- Rendering Blue Value

OS:DefaultScheduleSet,
  {a14dc07b-5f2e-456b-8718-af160a92fea7}, !- Handle
  189.1-2009 - Office - BreakRoom - CZ1-3 Schedule Set, !- Name
  ,                                       !- Hours of Operation Schedule Name
  {5d202175-83ff-4d87-a24c-7060e5da9adc}, !- Number of People Schedule Name
  {d7ab4702-8d99-4ef2-9d3e-d0c816b832cc}, !- People Activity Level Schedule Name
  {422c825c-6fbe-4da3-9054-c55ca3769ad9}, !- Lighting Schedule Name
  {09c3adeb-caa0-40ad-89c8-74701551f232}, !- Electric Equipment Schedule Name
  ,                                       !- Gas Equipment Schedule Name
  ,                                       !- Hot Water Equipment Schedule Name
  {1d30a2af-a58d-439a-bea6-2a8398e55dcb}, !- Infiltration Schedule Name
  ,                                       !- Steam Equipment Schedule Name
  ;                                       !- Other Equipment Schedule Name

OS:Lights:Definition,
  {b77840f7-96c3-43c1-a331-6ec0ac3d6b1b}, !- Handle
  189.1-2009 - Office - BreakRoom - CZ1-3 Lights Definition, !- Name
  Watts/Area,                             !- Design Level Calculation Method
  ,                                       !- Lighting Level {W}
  11.6250232500465,                       !- Watts per Space Floor Area {W/m2}
  ;                                       !- Watts per Person {W/person}

OS:Lights,
  {7f3c50b7-1f43-470c-8d0a-f4f397c8c7ec}, !- Handle
  189.1-2009 - Office - BreakRoom - CZ1-3 Lights, !- Name
  {b77840f7-96c3-43c1-a331-6ec0ac3d6b1b}, !- Lights Definition Name
  {1d07ab1f-6c33-41ea-ab33-ec812d3331bd}; !- Space or SpaceType Name

OS:Schedule:Ruleset,
  {422c825c-6fbe-4da3-9054-c55ca3769ad9}, ! Handle
  Office Bldg Light,                      ! Name
  {107683ef-26f8-4444-a217-fbdb92c35286}, ! Schedule Type Limits Name
  {67f422ab-7155-4ed5-8f44-24731d5ff03e}, ! Default Day Schedule Name
  {9494765f-16db-4d88-9c36-b43a34a6d0bd}, ! Summer Design Day Schedule Name
  {e9d20ea0-8608-4d51-80e0-922f7ba75157}; ! Winter Design Day Schedule Name

OS:ScheduleTypeLimits,
  {107683ef-26f8-4444-a217-fbdb92c35286}, ! Handle
  Fraction,                               ! Name
  0,                                      ! Lower Limit Value
  1,                                      ! Upper Limit Value
  CONTINUOUS;                             ! Numeric Type

OS:Schedule:Day,
  {67f422ab-7155-4ed5-8f44-24731d5ff03e}, ! Handle
  Office Bldg Light Default Schedule,     ! Name
  {107683ef-26f8-4444-a217-fbdb92c35286}, ! Schedule Type Limits Name
  ,                                       ! Interpolate to Timestep
  5,                                      !- Hour 1
  0,                                      !- Minute 1
  0.05,                                   !- Value Until Time 1
  7,                                      !- Hour 2
  0,                                      !- Minute 2
  0.1,                                    !- Value Until Time 2
  8,                                      !- Hour 3
  0,                                      !- Minute 3
  0.3,                                    !- Value Until Time 3
  17,                                     !- Hour 4
  0,                                      !- Minute 4
  0.9,                                    !- Value Until Time 4
  18,                                     !- Hour 5
  0,                                      !- Minute 5
  0.7,                                    !- Value Until Time 5
  20,                                     !- Hour 6
  0,                                      !- Minute 6
  0.5,                                    !- Value Until Time 6
  22,                                     !- Hour 7
  0,                                      !- Minute 7
  0.3,                                    !- Value Until Time 7
  23,                                     !- Hour 8
  0,                                      !- Minute 8
  0.1,                                    !- Value Until Time 8
  24,                                     !- Hour 9
  0,                                      !- Minute 9
  0.05;                                   !- Value Until Time 9

OS:Schedule:Day,
  {9494765f-16db-4d88-9c36-b43a34a6d0bd}, ! Handle
  Office Bldg Light Summer Design Day,    ! Name
  {107683ef-26f8-4444-a217-fbdb92c35286}, ! Schedule Type Limits Name
  ,                                       ! Interpolate to Timestep
  24,                                     ! Hour 1
  0,                                      ! Minute 1
  1;                                      ! Value Until Time 1

OS:Schedule:Day,
  {e9d20ea0-8608-4d51-80e0-922f7ba75157}, ! Handle
  Office Bldg Light Winter Design Day,    ! Name
  {107683ef-26f8-4444-a217-fbdb92c35286}, ! Schedule Type Limits Name
  ,                                       ! Interpolate to Timestep
  24,                                     ! Hour 1
  0,                                      ! Minute 1
  0;                                      ! Value Until Time 1

OS:Schedule:Rule,
  {2738dff5-a34d-42af-9b8c-e92771a92228}, ! Handle
  Office Bldg Light Rule 1,               ! Name
  {422c825c-6fbe-4da3-9054-c55ca3769ad9}, ! Schedule Ruleset Name
  0,                                      ! Rule Order
  {6ad85ea0-53e8-47b3-a218-e52e7168b6cb}, ! Day Schedule Name
  Yes,                                    ! Apply Sunday
  No,                                     ! Apply Monday
  No,                                     ! Apply Tuesday
  No,                                     ! Apply Wednesday
  No,                                     ! Apply Thursday
  No,                                     ! Apply Friday
  No,                                     ! Apply Saturday
  ,                                       ! Apply Holiday
  DateRange,                              ! Date Specification Type
  1,                                      ! Start Month
  1,                                      ! Start Day
  12,                                     ! End Month
  31;                                     ! End Day

OS:Schedule:Day,
  {6ad85ea0-53e8-47b3-a218-e52e7168b6cb}, ! Handle
  Office Bldg Light Rule 1 Day Schedule,  ! Name
  {107683ef-26f8-4444-a217-fbdb92c35286}, ! Schedule Type Limits Name
  ,                                       ! Interpolate to Timestep
  24,                                     ! Hour 1
  0,                                      ! Minute 1
  0.050000000000000003;                   ! Value Until Time 1

OS:Schedule:Rule,
  {4b4e114f-cb14-4bcd-b828-8ecf6f6cdc27}, ! Handle
  Office Bldg Light Rule 2,               ! Name
  {422c825c-6fbe-4da3-9054-c55ca3769ad9}, ! Schedule Ruleset Name
  1,                                      ! Rule Order
  {6e969357-d28a-425a-b564-04113084e3c3}, ! Day Schedule Name
  No,                                     ! Apply Sunday
  No,                                     ! Apply Monday
  No,                                     ! Apply Tuesday
  No,                                     ! Apply Wednesday
  No,                                     ! Apply Thursday
  No,                                     ! Apply Friday
  Yes,                                    ! Apply Saturday
  ,                                       ! Apply Holiday
  DateRange,                              ! Date Specification Type
  1,                                      ! Start Month
  1,                                      ! Start Day
  12,                                     ! End Month
  31;                                     ! End Day

OS:Schedule:Day,
  {6e969357-d28a-425a-b564-04113084e3c3}, ! Handle
  Office Bldg Light Rule 2 Day Schedule,  ! Name
  {107683ef-26f8-4444-a217-fbdb92c35286}, ! Schedule Type Limits Name
  ,                                       ! Interpolate to Timestep
  6,                                      ! Hour 1
  0,                                      ! Minute 1
  0.050000000000000003,                   ! Value Until Time 1
  8,                                      ! Hour 2
  0,                                      ! Minute 2
  0.10000000000000001,                    ! Value Until Time 2
  14,                                     ! Hour 3
  0,                                      ! Minute 3
  0.5,                                    ! Value Until Time 3
  17,                                     ! Hour 4
  0,                                      ! Minute 4
  0.14999999999999999,                    ! Value Until Time 4
  24,                                     ! Hour 5
  0,                                      ! Minute 5
  0.050000000000000003;                   ! Value Until Time 5

OS:DesignSpecification:OutdoorAir,
  {4df2110b-428e-42e6-b1b3-0fa8a8b29ce1}, !- Handle
  189.1-2009 - Office - BreakRoom - CZ1-3 Ventilation, !- Name
  Sum,                                    !- Outdoor Air Method
  0.007079211648,                         !- Outdoor Air Flow per Person {m3/s-person}
  ,                                       !- Outdoor Air Flow per Floor Area {m3/s-m2}
  ,                                       !- Outdoor Air Flow Rate {m3/s}
  ,                                       !- Outdoor Air Flow Air Changes per Hour {1/hr}
  ;                                       !- Outdoor Air Flow Rate Fraction Schedule Name

OS:People:Definition,
  {71f32679-90ab-4fc2-a6ab-0aa76f512b77}, !- Handle
  189.1-2009 - Office - BreakRoom - CZ1-3 People Definition, !- Name
  People/Area,                            !- Number of People Calculation Method
  ,                                       !- Number of People {people}
  0.538195520835486,                      !- People per Space Floor Area {person/m2}
  ,                                       !- Space Floor Area per Person {m2/person}
  0.3;                                    !- Fraction Radiant

OS:People,
  {fb5ff068-cd75-4ec0-be22-c88253365e92}, !- Handle
  189.1-2009 - Office - BreakRoom - CZ1-3 People, !- Name
  {71f32679-90ab-4fc2-a6ab-0aa76f512b77}, !- People Definition Name
  {1d07ab1f-6c33-41ea-ab33-ec812d3331bd}; !- Space or SpaceType Name

OS:Schedule:Ruleset,
  {5d202175-83ff-4d87-a24c-7060e5da9adc}, ! Handle
  Office Misc Occ,                        ! Name
  {107683ef-26f8-4444-a217-fbdb92c35286}, ! Schedule Type Limits Name
  {288594f2-bbd5-4160-aee5-182683f5c0cb}, ! Default Day Schedule Name
  {a91805d6-3457-4b8a-8a28-5214971444d5}, ! Summer Design Day Schedule Name
  {180ae767-c17d-466c-b195-7ab8657cce2f}; ! Winter Design Day Schedule Name

OS:Schedule:Day,
  {288594f2-bbd5-4160-aee5-182683f5c0cb}, ! Handle
  Office Bldg Occ Default Schedule 1,     ! Name
  {107683ef-26f8-4444-a217-fbdb92c35286}, ! Schedule Type Limits Name
  ,                                       ! Interpolate to Timestep
  6,                                      !- Hour 1
  0,                                      !- Minute 1
  0,                                      !- Value Until Time 1
  7,                                      !- Hour 2
  0,                                      !- Minute 2
  0.100000001490116,                      !- Value Until Time 2
  8,                                      !- Hour 3
  0,                                      !- Minute 3
  0.200000002980232,                      !- Value Until Time 3
  20,                                     !- Hour 4
  0,                                      !- Minute 4
  0.400000005960464,                      !- Value Until Time 4
  22,                                     !- Hour 5
  0,                                      !- Minute 5
  0.100000001490116,                      !- Value Until Time 5
  24,                                     !- Hour 6
  0,                                      !- Minute 6
  0.0500000007450581;                     !- Value Until Time 6

OS:Schedule:Day,
  {a91805d6-3457-4b8a-8a28-5214971444d5}, ! Handle
  Office Bldg Occ Summer Design Day 1,    ! Name
  {107683ef-26f8-4444-a217-fbdb92c35286}, ! Schedule Type Limits Name
  ,                                       ! Interpolate to Timestep
  6,                                      ! Hour 1
  0,                                      ! Minute 1
  0,                                      ! Value Until Time 1
  22,                                     ! Hour 2
  0,                                      ! Minute 2
  1,                                      ! Value Until Time 2
  24,                                     ! Hour 3
  0,                                      ! Minute 3
  0.050000000000000003;                   ! Value Until Time 3

OS:Schedule:Day,
  {180ae767-c17d-466c-b195-7ab8657cce2f}, ! Handle
  Office Bldg Occ Winter Design Day 1,    ! Name
  {107683ef-26f8-4444-a217-fbdb92c35286}, ! Schedule Type Limits Name
  ,                                       ! Interpolate to Timestep
  24,                                     ! Hour 1
  0,                                      ! Minute 1
  0;                                      ! Value Until Time 1

OS:Schedule:Rule,
  {d0f7aafb-78a9-47c1-a240-483132f409f4}, ! Handle
  Office Misc Occ Rule 1,                 ! Name
  {5d202175-83ff-4d87-a24c-7060e5da9adc}, ! Schedule Ruleset Name
  0,                                      ! Rule Order
  {6079d6c9-e15f-48db-b027-88ab75ef84ec}, ! Day Schedule Name
  Yes,                                    ! Apply Sunday
  No,                                     ! Apply Monday
  No,                                     ! Apply Tuesday
  No,                                     ! Apply Wednesday
  No,                                     ! Apply Thursday
  No,                                     ! Apply Friday
  No,                                     ! Apply Saturday
  ,                                       ! Apply Holiday
  DateRange,                              ! Date Specification Type
  1,                                      ! Start Month
  1,                                      ! Start Day
  12,                                     ! End Month
  31;                                     ! End Day

OS:Schedule:Day,
  {6079d6c9-e15f-48db-b027-88ab75ef84ec}, ! Handle
  Office Bldg Occ Rule 1 Day Schedule 1,  ! Name
  {107683ef-26f8-4444-a217-fbdb92c35286}, ! Schedule Type Limits Name
  ,                                       ! Interpolate to Timestep
  24,                                     ! Hour 1
  0,                                      ! Minute 1
  0;                                      ! Value Until Time 1

OS:Schedule:Rule,
  {f62f5c3a-8d12-446e-86ad-d8ac62aa74e1}, ! Handle
  Office Misc Occ Rule 2,                 ! Name
  {5d202175-83ff-4d87-a24c-7060e5da9adc}, ! Schedule Ruleset Name
  1,                                      ! Rule Order
  {3c1af3a7-e51a-4b8b-bac7-aed7ae25ea87}, ! Day Schedule Name
  No,                                     ! Apply Sunday
  No,                                     ! Apply Monday
  No,                                     ! Apply Tuesday
  No,                                     ! Apply Wednesday
  No,                                     ! Apply Thursday
  No,                                     ! Apply Friday
  Yes,                                    ! Apply Saturday
  ,                                       ! Apply Holiday
  DateRange,                              ! Date Specification Type
  1,                                      ! Start Month
  1,                                      ! Start Day
  12,                                     ! End Month
  31;                                     ! End Day

OS:Schedule:Day,
  {3c1af3a7-e51a-4b8b-bac7-aed7ae25ea87}, ! Handle
  Office Bldg Occ Rule 2 Day Schedule 1,  ! Name
  {107683ef-26f8-4444-a217-fbdb92c35286}, ! Schedule Type Limits Name
  ,                                       ! Interpolate to Timestep
  6,                                      !- Hour 1
  0,                                      !- Minute 1
  0,                                      !- Value Until Time 1
  8,                                      !- Hour 2
  0,                                      !- Minute 2
  0.100000001490116,                      !- Value Until Time 2
  14,                                     !- Hour 3
  0,                                      !- Minute 3
  0.25,                                   !- Value Until Time 3
  17,                                     !- Hour 4
  0,                                      !- Minute 4
  0.100000001490116,                      !- Value Until Time 4
  24,                                     !- Hour 5
  0,                                      !- Minute 5
  0;                                      !- Value Until Time 5

OS:Schedule:Ruleset,
  {d7ab4702-8d99-4ef2-9d3e-d0c816b832cc}, ! Handle
  Office Activity,                        ! Name
  {5611895f-1b9e-4c79-812c-d32af00ad707}, ! Schedule Type Limits Name
  {68069252-c17b-47fd-891c-c3d81e5d843d}, ! Default Day Schedule Name
  {837d37e3-b328-41f6-953e-f9e4b2093c91}, ! Summer Design Day Schedule Name
  {56cb5fe8-65d0-4b71-b5f3-1c85b038d12e}; ! Winter Design Day Schedule Name

OS:ScheduleTypeLimits,
  {5611895f-1b9e-4c79-812c-d32af00ad707}, !- Handle
  ActivityLevel,                          !- Name
  0,                                      !- Lower Limit Value {BasedOnField A4}
  ,                                       !- Upper Limit Value {BasedOnField A4}
  Continuous,                             !- Numeric Type
  ActivityLevel;                          !- Unit Type

OS:Schedule:Day,
  {68069252-c17b-47fd-891c-c3d81e5d843d}, ! Handle
  Office Activity Default Schedule,       ! Name
  {5611895f-1b9e-4c79-812c-d32af00ad707}, ! Schedule Type Limits Name
  ,                                       ! Interpolate to Timestep
  24,                                     !- Hour 1
  0,                                      !- Minute 1
  132;                                    !- Value Until Time 1

OS:Schedule:Day,
  {837d37e3-b328-41f6-953e-f9e4b2093c91}, ! Handle
  Office Activity Summer Design Day,      ! Name
  {5611895f-1b9e-4c79-812c-d32af00ad707}, ! Schedule Type Limits Name
  ,                                       ! Interpolate to Timestep
  24,                                     !- Hour 1
  0,                                      !- Minute 1
  132;                                    !- Value Until Time 1

OS:Schedule:Day,
  {56cb5fe8-65d0-4b71-b5f3-1c85b038d12e}, ! Handle
  Office Activity Winter Design Day,      ! Name
  {5611895f-1b9e-4c79-812c-d32af00ad707}, ! Schedule Type Limits Name
  ,                                       ! Interpolate to Timestep
  24,                                     !- Hour 1
  0,                                      !- Minute 1
  132;                                    !- Value Until Time 1

OS:SpaceInfiltration:DesignFlowRate,
  {02a39f46-31fe-44d4-9036-3bbde74b7dd2}, !- Handle
  189.1-2009 - Office - BreakRoom - CZ1-3 Infiltration, !- Name
  {1d07ab1f-6c33-41ea-ab33-ec812d3331bd}, !- Space or SpaceType Name
  ,                                       !- Schedule Name
  Flow/ExteriorArea,                      !- Design Flow Rate Calculation Method
  ,                                       !- Design Flow Rate {m3/s}
  ,                                       !- Flow per Space Floor Area {m3/s-m2}
  0.00030226,                             !- Flow per Exterior Surface Area {m3/s-m2}
  ,                                       !- Air Changes per Hour {1/hr}
  ,                                       !- Constant Term Coefficient
  ,                                       !- Temperature Term Coefficient
  ,                                       !- Velocity Term Coefficient
  ;                                       !- Velocity Squared Term Coefficient

OS:Schedule:Ruleset,
  {1d30a2af-a58d-439a-bea6-2a8398e55dcb}, ! Handle
  Office Infil Quarter On,                ! Name
  {107683ef-26f8-4444-a217-fbdb92c35286}, ! Schedule Type Limits Name
  {dd487314-0ce3-44b6-a8a0-ecf8fd26f737}, ! Default Day Schedule Name
  {a6bd9aa9-d3e4-40fb-8bf8-0ef96ce85f00}, ! Summer Design Day Schedule Name
  {3795c7a5-9a4a-47c6-9eb5-ff5f72329e57}; ! Winter Design Day Schedule Name

OS:Schedule:Day,
  {dd487314-0ce3-44b6-a8a0-ecf8fd26f737}, ! Handle
  Office Infil Quarter On Default Schedule, ! Name
  {107683ef-26f8-4444-a217-fbdb92c35286}, ! Schedule Type Limits Name
  ,                                       ! Interpolate to Timestep
  6,                                      !- Hour 1
  0,                                      !- Minute 1
  1,                                      !- Value Until Time 1
  22,                                     !- Hour 2
  0,                                      !- Minute 2
  0.25,                                   !- Value Until Time 2
  24,                                     !- Hour 3
  0,                                      !- Minute 3
  1;                                      !- Value Until Time 3

OS:Schedule:Day,
  {a6bd9aa9-d3e4-40fb-8bf8-0ef96ce85f00}, ! Handle
  Office Infil Quarter On Summer Design Day, ! Name
  {107683ef-26f8-4444-a217-fbdb92c35286}, ! Schedule Type Limits Name
  ,                                       ! Interpolate to Timestep
  6,                                      ! Hour 1
  0,                                      ! Minute 1
  1,                                      ! Value Until Time 1
  22,                                     ! Hour 2
  0,                                      ! Minute 2
  0.25,                                   ! Value Until Time 2
  24,                                     ! Hour 3
  0,                                      ! Minute 3
  1;                                      ! Value Until Time 3

OS:Schedule:Day,
  {3795c7a5-9a4a-47c6-9eb5-ff5f72329e57}, ! Handle
  Office Infil Quarter On Winter Design Day, ! Name
  {107683ef-26f8-4444-a217-fbdb92c35286}, ! Schedule Type Limits Name
  ,                                       ! Interpolate to Timestep
  6,                                      ! Hour 1
  0,                                      ! Minute 1
  1,                                      ! Value Until Time 1
  18,                                     ! Hour 2
  0,                                      ! Minute 2
  0.25,                                   ! Value Until Time 2
  24,                                     ! Hour 3
  0,                                      ! Minute 3
  1;                                      ! Value Until Time 3

OS:Schedule:Rule,
  {bfa2c6fb-d351-4ca8-88bf-d9943784e3ed}, ! Handle
  Office Infil Quarter On Rule 1,         ! Name
  {1d30a2af-a58d-439a-bea6-2a8398e55dcb}, ! Schedule Ruleset Name
  0,                                      ! Rule Order
  {f871e793-9c63-4b68-954e-06dfc6e4b97b}, ! Day Schedule Name
  Yes,                                    ! Apply Sunday
  No,                                     ! Apply Monday
  No,                                     ! Apply Tuesday
  No,                                     ! Apply Wednesday
  No,                                     ! Apply Thursday
  No,                                     ! Apply Friday
  No,                                     ! Apply Saturday
  ,                                       ! Apply Holiday
  DateRange,                              ! Date Specification Type
  1,                                      ! Start Month
  1,                                      ! Start Day
  12,                                     ! End Month
  31;                                     ! End Day

OS:Schedule:Day,
  {f871e793-9c63-4b68-954e-06dfc6e4b97b}, ! Handle
  Office Infil Quarter On Rule 1 Day Schedule, ! Name
  {107683ef-26f8-4444-a217-fbdb92c35286}, ! Schedule Type Limits Name
  ,                                       ! Interpolate to Timestep
  24,                                     ! Hour 1
  0,                                      ! Minute 1
  1;                                      ! Value Until Time 1

OS:Schedule:Rule,
  {966d5753-d118-43f9-aa3d-538a3221b65e}, ! Handle
  Office Infil Quarter On Rule 2,         ! Name
  {1d30a2af-a58d-439a-bea6-2a8398e55dcb}, ! Schedule Ruleset Name
  1,                                      ! Rule Order
  {a581e835-dd76-4c57-b390-504f1f5f74cf}, ! Day Schedule Name
  No,                                     ! Apply Sunday
  No,                                     ! Apply Monday
  No,                                     ! Apply Tuesday
  No,                                     ! Apply Wednesday
  No,                                     ! Apply Thursday
  No,                                     ! Apply Friday
  Yes,                                    ! Apply Saturday
  ,                                       ! Apply Holiday
  DateRange,                              ! Date Specification Type
  1,                                      ! Start Month
  1,                                      ! Start Day
  12,                                     ! End Month
  31;                                     ! End Day

OS:Schedule:Day,
  {a581e835-dd76-4c57-b390-504f1f5f74cf}, ! Handle
  Office Infil Quarter On Rule 2 Day Schedule, ! Name
  {107683ef-26f8-4444-a217-fbdb92c35286}, ! Schedule Type Limits Name
  ,                                       ! Interpolate to Timestep
  6,                                      ! Hour 1
  0,                                      ! Minute 1
  1,                                      ! Value Until Time 1
  18,                                     ! Hour 2
  0,                                      ! Minute 2
  0.25,                                   ! Value Until Time 2
  24,                                     ! Hour 3
  0,                                      ! Minute 3
  1;                                      ! Value Until Time 3

OS:ElectricEquipment:Definition,
  {dd60eea0-7688-458b-aefc-beec02aecbc6}, !- Handle
  189.1-2009 - Office - BreakRoom - CZ1-3 Electric Equipment Definition, !- Name
  Watts/Area,                             !- Design Level Calculation Method
  ,                                       !- Design Level {W}
  48.0070404585254,                       !- Watts per Space Floor Area {W/m2}
  ;                                       !- Watts per Person {W/person}

OS:ElectricEquipment,
  {5d0ff5fe-81ea-4a32-9340-33ab20c3b112}, !- Handle
  189.1-2009 - Office - BreakRoom - CZ1-3 Electric Equipment, !- Name
  {dd60eea0-7688-458b-aefc-beec02aecbc6}, !- Electric Equipment Definition Name
  {1d07ab1f-6c33-41ea-ab33-ec812d3331bd}; !- Space or SpaceType Name

OS:Schedule:Ruleset,
  {09c3adeb-caa0-40ad-89c8-74701551f232}, ! Handle
  Office Bldg Equip,                      ! Name
  {107683ef-26f8-4444-a217-fbdb92c35286}, ! Schedule Type Limits Name
  {27c07f2e-205f-4c9b-ad7c-a24cd2e98c2f}, ! Default Day Schedule Name
  {bbd17076-cde8-410f-9b1e-8036c496ca30}, ! Summer Design Day Schedule Name
  {5ebff791-cd53-463e-9cb3-a11ff7590bf3}; ! Winter Design Day Schedule Name

OS:Schedule:Day,
  {27c07f2e-205f-4c9b-ad7c-a24cd2e98c2f}, ! Handle
  Office Bldg Equip Default Schedule,     ! Name
  {107683ef-26f8-4444-a217-fbdb92c35286}, ! Schedule Type Limits Name
  ,                                       ! Interpolate to Timestep
  8,                                      !- Hour 1
  0,                                      !- Minute 1
  0.4,                                    !- Value Until Time 1
  12,                                     !- Hour 2
  0,                                      !- Minute 2
  0.9,                                    !- Value Until Time 2
  13,                                     !- Hour 3
  0,                                      !- Minute 3
  0.8,                                    !- Value Until Time 3
  17,                                     !- Hour 4
  0,                                      !- Minute 4
  0.9,                                    !- Value Until Time 4
  18,                                     !- Hour 5
  0,                                      !- Minute 5
  0.8,                                    !- Value Until Time 5
  20,                                     !- Hour 6
  0,                                      !- Minute 6
  0.6,                                    !- Value Until Time 6
  22,                                     !- Hour 7
  0,                                      !- Minute 7
  0.5,                                    !- Value Until Time 7
  24,                                     !- Hour 8
  0,                                      !- Minute 8
  0.4;                                    !- Value Until Time 8

OS:Schedule:Day,
  {bbd17076-cde8-410f-9b1e-8036c496ca30}, ! Handle