
OS:Version,
  {071888f0-0f69-4864-97f2-69c667d0b3b5}, !- Handle
  1.3.3;                                  !- Version Identifier

OS:SpaceType,
  {275b282b-2ff7-46d0-9931-ddeda5197d17}, !- Handle
  189.1-2009 - Office - BreakRoom - CZ1-3, !- Name
  ,                                       !- Default Construction Set Name
  {0d9af331-ce5f-4f0f-8920-ab8cd5a285df}, !- Default Schedule Set Name
  {cf4aad3f-8438-4e61-a245-2c6f6a94b8e5}, !- Group Rendering Name
  {15bd45ed-cb26-42ab-a14d-c82291234db9}, !- Design Specification Outdoor Air Object Name
  Office,                                 !- Standards Building Type
  BreakRoom;                              !- Standards Space Type

OS:Rendering:Color,
  {cf4aad3f-8438-4e61-a245-2c6f6a94b8e5}, !- Handle
  Rendering Color 1,                      !- Name
  230,                                    !- Rendering Red Value
  157,                                    !- Rendering Green Value
  120;                                    !- Rendering Blue Value

OS:DefaultScheduleSet,
  {0d9af331-ce5f-4f0f-8920-ab8cd5a285df}, !- Handle
  189.1-2009 - Office - BreakRoom - CZ1-3 Schedule Set, !- Name
  ,                                       !- Hours of Operation Schedule Name
  {60c247d0-e267-4480-b318-666669a8c544}, !- Number of People Schedule Name
  {fbe8b7e3-10af-418e-a845-3fb7c018b90e}, !- People Activity Level Schedule Name
  {ca20845e-d284-4cfd-8a51-7d86db3a981d}, !- Lighting Schedule Name
  {43a01657-d22e-476e-8c1d-25aee271f67c}, !- Electric Equipment Schedule Name
  ,                                       !- Gas Equipment Schedule Name
  ,                                       !- Hot Water Equipment Schedule Name
  {4708328c-d4c3-40bb-b272-37773389f941}, !- Infiltration Schedule Name
  ,                                       !- Steam Equipment Schedule Name
  ;                                       !- Other Equipment Schedule Name

OS:Lights:Definition,
  {5578a021-9692-4a5d-b678-d8f448775610}, !- Handle
  189.1-2009 - Office - BreakRoom - CZ1-3 Lights Definition, !- Name
  Watts/Area,                             !- Design Level Calculation Method
  ,                                       !- Lighting Level {W}
  11.6250232500465,                       !- Watts per Space Floor Area {W/m2}
  ;                                       !- Watts per Person {W/person}

OS:Lights,
  {d1dd21b8-1905-441e-9b0f-7dec9487c97f}, !- Handle
  189.1-2009 - Office - BreakRoom - CZ1-3 Lights, !- Name
  {5578a021-9692-4a5d-b678-d8f448775610}, !- Lights Definition Name
  {275b282b-2ff7-46d0-9931-ddeda5197d17}; !- Space or SpaceType Name

OS:Schedule:Ruleset,
  {ca20845e-d284-4cfd-8a51-7d86db3a981d}, ! Handle
  Office Bldg Light,                      ! Name
  {98bade2a-cf7a-49a2-b5b7-a4b4e2d47d8b}, ! Schedule Type Limits Name
  {92bb8ee3-c0cf-4692-9698-2d4aae04f780}, ! Default Day Schedule Name
  {a163aba2-ff1b-4281-a5b0-9ddd67542180}, ! Summer Design Day Schedule Name
  {0ab26f53-6a70-4f75-ae14-057117f599be}; ! Winter Design Day Schedule Name

OS:ScheduleTypeLimits,
  {98bade2a-cf7a-49a2-b5b7-a4b4e2d47d8b}, ! Handle
  Fraction,                               ! Name
  0,                                      ! Lower Limit Value
  1,                                      ! Upper Limit Value
  CONTINUOUS;                             ! Numeric Type

OS:Schedule:Day,
  {92bb8ee3-c0cf-4692-9698-2d4aae04f780}, ! Handle
  Office Bldg Light Default Schedule,     ! Name
  {98bade2a-cf7a-49a2-b5b7-a4b4e2d47d8b}, ! Schedule Type Limits Name
  ,                                       ! Interpolate to Timestep
  5,                                      !- Hour 1
  0,                                      !- Minute 1
  0.05,                                   !- Value Until Time 1
  7,                                      !- Hour 2
  0,                                      !- Minute 2
  0.1,                                    !- Value Until Time 2
  8,                                      !- Hour 3
  0,                                      !- Minute 3
  0.3,                                    !- Value Until Time 3
  17,                                     !- Hour 4
  0,                                      !- Minute 4
  0.9,                                    !- Value Until Time 4
  18,                                     !- Hour 5
  0,                                      !- Minute 5
  0.7,                                    !- Value Until Time 5
  20,                                     !- Hour 6
  0,                                      !- Minute 6
  0.5,                                    !- Value Until Time 6
  22,                                     !- Hour 7
  0,                                      !- Minute 7
  0.3,                                    !- Value Until Time 7
  23,                                     !- Hour 8
  0,                                      !- Minute 8
  0.1,                                    !- Value Until Time 8
  24,                                     !- Hour 9
  0,                                      !- Minute 9
  0.05;                                   !- Value Until Time 9

OS:Schedule:Day,
  {a163aba2-ff1b-4281-a5b0-9ddd67542180}, ! Handle
  Office Bldg Light Summer Design Day,    ! Name
  {98bade2a-cf7a-49a2-b5b7-a4b4e2d47d8b}, ! Schedule Type Limits Name
  ,                                       ! Interpolate to Timestep
  24,                                     ! Hour 1
  0,                                      ! Minute 1
  1;                                      ! Value Until Time 1

OS:Schedule:Day,
  {0ab26f53-6a70-4f75-ae14-057117f599be}, ! Handle
  Office Bldg Light Winter Design Day,    ! Name
  {98bade2a-cf7a-49a2-b5b7-a4b4e2d47d8b}, ! Schedule Type Limits Name
  ,                                       ! Interpolate to Timestep
  24,                                     ! Hour 1
  0,                                      ! Minute 1
  0;                                      ! Value Until Time 1

OS:Schedule:Rule,
  {e56ad07c-bc93-4aa3-8026-015b95f3c947}, ! Handle
  Office Bldg Light Rule 1,               ! Name
  {ca20845e-d284-4cfd-8a51-7d86db3a981d}, ! Schedule Ruleset Name
  0,                                      ! Rule Order
  {fb7173be-f82a-4993-818d-a9797cb3cbaf}, ! Day Schedule Name
  Yes,                                    ! Apply Sunday
  No,                                     ! Apply Monday
  No,                                     ! Apply Tuesday
  No,                                     ! Apply Wednesday
  No,                                     ! Apply Thursday
  No,                                     ! Apply Friday
  No,                                     ! Apply Saturday
  ,                                       ! Apply Holiday
  DateRange,                              ! Date Specification Type
  1,                                      ! Start Month
  1,                                      ! Start Day
  12,                                     ! End Month
  31;                                     ! End Day

OS:Schedule:Day,
  {fb7173be-f82a-4993-818d-a9797cb3cbaf}, ! Handle
  Office Bldg Light Rule 1 Day Schedule,  ! Name
  {98bade2a-cf7a-49a2-b5b7-a4b4e2d47d8b}, ! Schedule Type Limits Name
  ,                                       ! Interpolate to Timestep
  24,                                     ! Hour 1
  0,                                      ! Minute 1
  0.050000000000000003;                   ! Value Until Time 1

OS:Schedule:Rule,
  {8365d9c4-eae4-43e5-9cd4-d0338e3b9d7f}, ! Handle
  Office Bldg Light Rule 2,               ! Name
  {ca20845e-d284-4cfd-8a51-7d86db3a981d}, ! Schedule Ruleset Name
  1,                                      ! Rule Order
  {d5f8f868-6b15-4bdd-a1c1-b86141a4bbad}, ! Day Schedule Name
  No,                                     ! Apply Sunday
  No,                                     ! Apply Monday
  No,                                     ! Apply Tuesday
  No,                                     ! Apply Wednesday
  No,                                     ! Apply Thursday
  No,                                     ! Apply Friday
  Yes,                                    ! Apply Saturday
  ,                                       ! Apply Holiday
  DateRange,                              ! Date Specification Type
  1,                                      ! Start Month
  1,                                      ! Start Day
  12,                                     ! End Month
  31;                                     ! End Day

OS:Schedule:Day,
  {d5f8f868-6b15-4bdd-a1c1-b86141a4bbad}, ! Handle
  Office Bldg Light Rule 2 Day Schedule,  ! Name
  {98bade2a-cf7a-49a2-b5b7-a4b4e2d47d8b}, ! Schedule Type Limits Name
  ,                                       ! Interpolate to Timestep
  6,                                      ! Hour 1
  0,                                      ! Minute 1
  0.050000000000000003,                   ! Value Until Time 1
  8,                                      ! Hour 2
  0,                                      ! Minute 2
  0.10000000000000001,                    ! Value Until Time 2
  14,                                     ! Hour 3
  0,                                      ! Minute 3
  0.5,                                    ! Value Until Time 3
  17,                                     ! Hour 4
  0,                                      ! Minute 4
  0.14999999999999999,                    ! Value Until Time 4
  24,                                     ! Hour 5
  0,                                      ! Minute 5
  0.050000000000000003;                   ! Value Until Time 5

OS:DesignSpecification:OutdoorAir,
  {15bd45ed-cb26-42ab-a14d-c82291234db9}, !- Handle
  189.1-2009 - Office - BreakRoom - CZ1-3 Ventilation, !- Name
  Sum,                                    !- Outdoor Air Method
  0.007079211648,                         !- Outdoor Air Flow per Person {m3/s-person}
  ,                                       !- Outdoor Air Flow per Floor Area {m3/s-m2}
  ,                                       !- Outdoor Air Flow Rate {m3/s}
  ,                                       !- Outdoor Air Flow Air Changes per Hour {1/hr}
  ;                                       !- Outdoor Air Flow Rate Fraction Schedule Name

OS:People:Definition,
  {418d1faf-766a-4a2b-b51e-48ee82ddb08f}, !- Handle
  189.1-2009 - Office - BreakRoom - CZ1-3 People Definition, !- Name
  People/Area,                            !- Number of People Calculation Method
  ,                                       !- Number of People {people}
  0.538195520835486,                      !- People per Space Floor Area {person/m2}
  ,                                       !- Space Floor Area per Person {m2/person}
  0.3;                                    !- Fraction Radiant

OS:People,
  {66dd7484-45ad-4dc1-b2ad-ed1bae2f5623}, !- Handle
  189.1-2009 - Office - BreakRoom - CZ1-3 People, !- Name
  {418d1faf-766a-4a2b-b51e-48ee82ddb08f}, !- People Definition Name
  {275b282b-2ff7-46d0-9931-ddeda5197d17}; !- Space or SpaceType Name

OS:Schedule:Ruleset,
  {60c247d0-e267-4480-b318-666669a8c544}, ! Handle
  Office Misc Occ,                        ! Name
  {98bade2a-cf7a-49a2-b5b7-a4b4e2d47d8b}, ! Schedule Type Limits Name
  {dc883716-13f0-4eb4-bd6c-dcfbc702754a}, ! Default Day Schedule Name
  {7d960531-0f0f-4ebe-a80d-4143eb8580b1}, ! Summer Design Day Schedule Name
  {a5711df9-d752-4598-8adf-96fbec698103}; ! Winter Design Day Schedule Name

OS:Schedule:Day,
  {dc883716-13f0-4eb4-bd6c-dcfbc702754a}, ! Handle
  Office Bldg Occ Default Schedule 1,     ! Name
  {98bade2a-cf7a-49a2-b5b7-a4b4e2d47d8b}, ! Schedule Type Limits Name
  ,                                       ! Interpolate to Timestep
  6,                                      !- Hour 1
  0,                                      !- Minute 1
  0,                                      !- Value Until Time 1
  7,                                      !- Hour 2
  0,                                      !- Minute 2
  0.100000001490116,                      !- Value Until Time 2
  8,                                      !- Hour 3
  0,                                      !- Minute 3
  0.200000002980232,                      !- Value Until Time 3
  20,                                     !- Hour 4
  0,                                      !- Minute 4
  0.400000005960464,                      !- Value Until Time 4
  22,                                     !- Hour 5
  0,                                      !- Minute 5
  0.100000001490116,                      !- Value Until Time 5
  24,                                     !- Hour 6
  0,                                      !- Minute 6
  0.0500000007450581;                     !- Value Until Time 6

OS:Schedule:Day,
  {7d960531-0f0f-4ebe-a80d-4143eb8580b1}, ! Handle
  Office Bldg Occ Summer Design Day 1,    ! Name
  {98bade2a-cf7a-49a2-b5b7-a4b4e2d47d8b}, ! Schedule Type Limits Name
  ,                                       ! Interpolate to Timestep
  6,                                      ! Hour 1
  0,                                      ! Minute 1
  0,                                      ! Value Until Time 1
  22,                                     ! Hour 2
  0,                                      ! Minute 2
  1,                                      ! Value Until Time 2
  24,                                     ! Hour 3
  0,                                      ! Minute 3
  0.050000000000000003;                   ! Value Until Time 3

OS:Schedule:Day,
  {a5711df9-d752-4598-8adf-96fbec698103}, ! Handle
  Office Bldg Occ Winter Design Day 1,    ! Name
  {98bade2a-cf7a-49a2-b5b7-a4b4e2d47d8b}, ! Schedule Type Limits Name
  ,                                       ! Interpolate to Timestep
  24,                                     ! Hour 1
  0,                                      ! Minute 1
  0;                                      ! Value Until Time 1

OS:Schedule:Rule,
  {816dd9c1-6811-4ee1-8868-a9110673f82a}, ! Handle
  Office Misc Occ Rule 1,                 ! Name
  {60c247d0-e267-4480-b318-666669a8c544}, ! Schedule Ruleset Name
  0,                                      ! Rule Order
  {179d865e-fe57-47e0-8bcd-e40c2a7b4475}, ! Day Schedule Name
  Yes,                                    ! Apply Sunday
  No,                                     ! Apply Monday
  No,                                     ! Apply Tuesday
  No,                                     ! Apply Wednesday
  No,                                     ! Apply Thursday
  No,                                     ! Apply Friday
  No,                                     ! Apply Saturday
  ,                                       ! Apply Holiday
  DateRange,                              ! Date Specification Type
  1,                                      ! Start Month
  1,                                      ! Start Day
  12,                                     ! End Month
  31;                                     ! End Day

OS:Schedule:Day,
  {179d865e-fe57-47e0-8bcd-e40c2a7b4475}, ! Handle
  Office Bldg Occ Rule 1 Day Schedule 1,  ! Name
  {98bade2a-cf7a-49a2-b5b7-a4b4e2d47d8b}, ! Schedule Type Limits Name
  ,                                       ! Interpolate to Timestep
  24,                                     ! Hour 1
  0,                                      ! Minute 1
  0;                                      ! Value Until Time 1

OS:Schedule:Rule,
  {5746263d-16b5-42ed-b24c-1054ef6cd1d2}, ! Handle
  Office Misc Occ Rule 2,                 ! Name
  {60c247d0-e267-4480-b318-666669a8c544}, ! Schedule Ruleset Name
  1,                                      ! Rule Order
  {fa3f13fb-f54f-4c83-ad3d-88bb688500ac}, ! Day Schedule Name
  No,                                     ! Apply Sunday
  No,                                     ! Apply Monday
  No,                                     ! Apply Tuesday
  No,                                     ! Apply Wednesday
  No,                                     ! Apply Thursday
  No,                                     ! Apply Friday
  Yes,                                    ! Apply Saturday
  ,                                       ! Apply Holiday
  DateRange,                              ! Date Specification Type
  1,                                      ! Start Month
  1,                                      ! Start Day
  12,                                     ! End Month
  31;                                     ! End Day

OS:Schedule:Day,
  {fa3f13fb-f54f-4c83-ad3d-88bb688500ac}, ! Handle
  Office Bldg Occ Rule 2 Day Schedule 1,  ! Name
  {98bade2a-cf7a-49a2-b5b7-a4b4e2d47d8b}, ! Schedule Type Limits Name
  ,                                       ! Interpolate to Timestep
  6,                                      !- Hour 1
  0,                                      !- Minute 1
  0,                                      !- Value Until Time 1
  8,                                      !- Hour 2
  0,                                      !- Minute 2
  0.100000001490116,                      !- Value Until Time 2
  14,                                     !- Hour 3
  0,                                      !- Minute 3
  0.25,                                   !- Value Until Time 3
  17,                                     !- Hour 4
  0,                                      !- Minute 4
  0.100000001490116,                      !- Value Until Time 4
  24,                                     !- Hour 5
  0,                                      !- Minute 5
  0;                                      !- Value Until Time 5

OS:Schedule:Ruleset,
  {fbe8b7e3-10af-418e-a845-3fb7c018b90e}, ! Handle
  Office Activity,                        ! Name
  {fcac9c27-b9e6-4dcc-a085-ca03b3c66387}, ! Schedule Type Limits Name
  {375831b9-590a-4c05-89b8-6ed39bfba926}, ! Default Day Schedule Name
  {3473b9b9-c24d-46d0-a5ac-b4bbd11006e0}, ! Summer Design Day Schedule Name
  {12fae3c2-2743-4570-8787-d89fe022cfb3}; ! Winter Design Day Schedule Name

OS:ScheduleTypeLimits,
  {fcac9c27-b9e6-4dcc-a085-ca03b3c66387}, !- Handle
  ActivityLevel,                          !- Name
  0,                                      !- Lower Limit Value {BasedOnField A4}
  ,                                       !- Upper Limit Value {BasedOnField A4}
  Continuous,                             !- Numeric Type
  ActivityLevel;                          !- Unit Type

OS:Schedule:Day,
  {375831b9-590a-4c05-89b8-6ed39bfba926}, ! Handle
  Office Activity Default Schedule,       ! Name
  {fcac9c27-b9e6-4dcc-a085-ca03b3c66387}, ! Schedule Type Limits Name
  ,                                       ! Interpolate to Timestep
  24,                                     !- Hour 1
  0,                                      !- Minute 1
  132;                                    !- Value Until Time 1

OS:Schedule:Day,
  {3473b9b9-c24d-46d0-a5ac-b4bbd11006e0}, ! Handle
  Office Activity Summer Design Day,      ! Name
  {fcac9c27-b9e6-4dcc-a085-ca03b3c66387}, ! Schedule Type Limits Name
  ,                                       ! Interpolate to Timestep
  24,                                     !- Hour 1
  0,                                      !- Minute 1
  132;                                    !- Value Until Time 1

OS:Schedule:Day,
  {12fae3c2-2743-4570-8787-d89fe022cfb3}, ! Handle
  Office Activity Winter Design Day,      ! Name
  {fcac9c27-b9e6-4dcc-a085-ca03b3c66387}, ! Schedule Type Limits Name
  ,                                       ! Interpolate to Timestep
  24,                                     !- Hour 1
  0,                                      !- Minute 1
  132;                                    !- Value Until Time 1

OS:SpaceInfiltration:DesignFlowRate,
  {354c7645-49fb-4c54-8193-a32d9a7e8ef2}, !- Handle
  189.1-2009 - Office - BreakRoom - CZ1-3 Infiltration, !- Name
  {275b282b-2ff7-46d0-9931-ddeda5197d17}, !- Space or SpaceType Name
  ,                                       !- Schedule Name
  Flow/ExteriorArea,                      !- Design Flow Rate Calculation Method
  ,                                       !- Design Flow Rate {m3/s}
  ,                                       !- Flow per Space Floor Area {m3/s-m2}
  0.00030226,                             !- Flow per Exterior Surface Area {m3/s-m2}
  ,                                       !- Air Changes per Hour {1/hr}
  ,                                       !- Constant Term Coefficient
  ,                                       !- Temperature Term Coefficient
  ,                                       !- Velocity Term Coefficient
  ;                                       !- Velocity Squared Term Coefficient

OS:Schedule:Ruleset,
  {4708328c-d4c3-40bb-b272-37773389f941}, ! Handle
  Office Infil Quarter On,                ! Name
  {98bade2a-cf7a-49a2-b5b7-a4b4e2d47d8b}, ! Schedule Type Limits Name
  {efa61c55-1f85-41c5-a8e7-91622914d822}, ! Default Day Schedule Name
  {b694922e-f3d7-4833-be00-cc0f1a90d508}, ! Summer Design Day Schedule Name
  {6945e61b-fa78-4ad3-b02d-1085cd4fdd91}; ! Winter Design Day Schedule Name

OS:Schedule:Day,
  {efa61c55-1f85-41c5-a8e7-91622914d822}, ! Handle
  Office Infil Quarter On Default Schedule, ! Name
  {98bade2a-cf7a-49a2-b5b7-a4b4e2d47d8b}, ! Schedule Type Limits Name
  ,                                       ! Interpolate to Timestep
  6,                                      !- Hour 1
  0,                                      !- Minute 1
  1,                                      !- Value Until Time 1
  22,                                     !- Hour 2
  0,                                      !- Minute 2
  0.25,                                   !- Value Until Time 2
  24,                                     !- Hour 3
  0,                                      !- Minute 3
  1;                                      !- Value Until Time 3

OS:Schedule:Day,
  {b694922e-f3d7-4833-be00-cc0f1a90d508}, ! Handle
  Office Infil Quarter On Summer Design Day, ! Name
  {98bade2a-cf7a-49a2-b5b7-a4b4e2d47d8b}, ! Schedule Type Limits Name
  ,                                       ! Interpolate to Timestep
  6,                                      ! Hour 1
  0,                                      ! Minute 1
  1,                                      ! Value Until Time 1
  22,                                     ! Hour 2
  0,                                      ! Minute 2
  0.25,                                   ! Value Until Time 2
  24,                                     ! Hour 3
  0,                                      ! Minute 3
  1;                                      ! Value Until Time 3

OS:Schedule:Day,
  {6945e61b-fa78-4ad3-b02d-1085cd4fdd91}, ! Handle
  Office Infil Quarter On Winter Design Day, ! Name
  {98bade2a-cf7a-49a2-b5b7-a4b4e2d47d8b}, ! Schedule Type Limits Name
  ,                                       ! Interpolate to Timestep
  6,                                      ! Hour 1
  0,                                      ! Minute 1
  1,                                      ! Value Until Time 1
  18,                                     ! Hour 2
  0,                                      ! Minute 2
  0.25,                                   ! Value Until Time 2
  24,                                     ! Hour 3
  0,                                      ! Minute 3
  1;                                      ! Value Until Time 3

OS:Schedule:Rule,
  {e976f8e2-d28a-4658-b710-4b1cbaff8309}, ! Handle
  Office Infil Quarter On Rule 1,         ! Name
  {4708328c-d4c3-40bb-b272-37773389f941}, ! Schedule Ruleset Name
  0,                                      ! Rule Order
  {f6ae4974-b6ac-4656-8dfd-1ca8bb96eb8b}, ! Day Schedule Name
  Yes,                                    ! Apply Sunday
  No,                                     ! Apply Monday
  No,                                     ! Apply Tuesday
  No,                                     ! Apply Wednesday
  No,                                     ! Apply Thursday
  No,                                     ! Apply Friday
  No,                                     ! Apply Saturday
  ,                                       ! Apply Holiday
  DateRange,                              ! Date Specification Type
  1,                                      ! Start Month
  1,                                      ! Start Day
  12,                                     ! End Month
  31;                                     ! End Day

OS:Schedule:Day,
  {f6ae4974-b6ac-4656-8dfd-1ca8bb96eb8b}, ! Handle
  Office Infil Quarter On Rule 1 Day Schedule, ! Name
  {98bade2a-cf7a-49a2-b5b7-a4b4e2d47d8b}, ! Schedule Type Limits Name
  ,                                       ! Interpolate to Timestep
  24,                                     ! Hour 1
  0,                                      ! Minute 1
  1;                                      ! Value Until Time 1

OS:Schedule:Rule,
  {ff3b7ac4-143c-41ea-bb08-460fefbeb3e5}, ! Handle
  Office Infil Quarter On Rule 2,         ! Name
  {4708328c-d4c3-40bb-b272-37773389f941}, ! Schedule Ruleset Name
  1,                                      ! Rule Order
  {49bdf765-300f-4e96-b9b5-ffadd16829eb}, ! Day Schedule Name
  No,                                     ! Apply Sunday
  No,                                     ! Apply Monday
  No,                                     ! Apply Tuesday
  No,                                     ! Apply Wednesday
  No,                                     ! Apply Thursday
  No,                                     ! Apply Friday
  Yes,                                    ! Apply Saturday
  ,                                       ! Apply Holiday
  DateRange,                              ! Date Specification Type
  1,                                      ! Start Month
  1,                                      ! Start Day
  12,                                     ! End Month
  31;                                     ! End Day

OS:Schedule:Day,
  {49bdf765-300f-4e96-b9b5-ffadd16829eb}, ! Handle
  Office Infil Quarter On Rule 2 Day Schedule, ! Name
  {98bade2a-cf7a-49a2-b5b7-a4b4e2d47d8b}, ! Schedule Type Limits Name
  ,                                       ! Interpolate to Timestep
  6,                                      ! Hour 1
  0,                                      ! Minute 1
  1,                                      ! Value Until Time 1
  18,                                     ! Hour 2
  0,                                      ! Minute 2
  0.25,                                   ! Value Until Time 2
  24,                                     ! Hour 3
  0,                                      ! Minute 3
  1;                                      ! Value Until Time 3

OS:ElectricEquipment:Definition,
  {e8294e62-15e7-47bf-b0c6-433f6d8d17c9}, !- Handle
  189.1-2009 - Office - BreakRoom - CZ1-3 Electric Equipment Definition, !- Name
  Watts/Area,                             !- Design Level Calculation Method
  ,                                       !- Design Level {W}
  48.0070404585254,                       !- Watts per Space Floor Area {W/m2}
  ;                                       !- Watts per Person {W/person}

OS:ElectricEquipment,
  {d80a3243-1b40-475b-9060-139d7fdf143a}, !- Handle
  189.1-2009 - Office - BreakRoom - CZ1-3 Electric Equipment, !- Name
  {e8294e62-15e7-47bf-b0c6-433f6d8d17c9}, !- Electric Equipment Definition Name
  {275b282b-2ff7-46d0-9931-ddeda5197d17}; !- Space or SpaceType Name

OS:Schedule:Ruleset,
  {43a01657-d22e-476e-8c1d-25aee271f67c}, ! Handle
  Office Bldg Equip,                      ! Name
  {98bade2a-cf7a-49a2-b5b7-a4b4e2d47d8b}, ! Schedule Type Limits Name
  {037f2d12-ad90-49ed-ac09-11dd797cb7f4}, ! Default Day Schedule Name
  {09472b36-b9b1-43d2-941f-5e87e5b5a841}, ! Summer Design Day Schedule Name
  {8ab79749-2fbf-44ae-ad89-9c3060aee17f}; ! Winter Design Day Schedule Name

OS:Schedule:Day,
  {037f2d12-ad90-49ed-ac09-11dd797cb7f4}, ! Handle
  Office Bldg Equip Default Schedule,     ! Name
  {98bade2a-cf7a-49a2-b5b7-a4b4e2d47d8b}, ! Schedule Type Limits Name
  ,                                       ! Interpolate to Timestep
  8,                                      !- Hour 1
  0,                                      !- Minute 1
  0.4,                                    !- Value Until Time 1
  12,                                     !- Hour 2
  0,                                      !- Minute 2
  0.9,                                    !- Value Until Time 2
  13,                                     !- Hour 3
  0,                                      !- Minute 3
  0.8,                                    !- Value Until Time 3
  17,                                     !- Hour 4
  0,                                      !- Minute 4
  0.9,                                    !- Value Until Time 4
  18,                                     !- Hour 5
  0,                                      !- Minute 5
  0.8,                                    !- Value Until Time 5
  20,                                     !- Hour 6
  0,                                      !- Minute 6
  0.6,                                    !- Value Until Time 6
  22,                                     !- Hour 7
  0,                                      !- Minute 7
  0.5,                                    !- Value Until Time 7
  24,                                     !- Hour 8
  0,                                      !- Minute 8
  0.4;                                    !- Value Until Time 8

OS:Schedule:Day,
  {09472b36-b9b1-43d2-941f-5e87e5b5a841}, ! Handle