
OS:Version,
  {750bc55b-e49f-4d22-a3d3-8ff25e63f9d2}, !- Handle
  1.4.0;                                  !- Version Identifier

OS:SpaceType,
  {647d96f7-6663-4d94-8327-cc0fa46bc791}, !- Handle
  189.1-2009 - Office - BreakRoom - CZ1-3, !- Name
  ,                                       !- Default Construction Set Name
  {997749f1-419e-47b0-ba7c-55ee89729f9d}, !- Default Schedule Set Name
  {530ddc7b-1b75-4a88-ab29-f47a261f2e5b}, !- Group Rendering Name
  {750bb77c-7863-492f-bbb3-4b7b8958d5f1}, !- Design Specification Outdoor Air Object Name
  Office,                                 !- Standards Building Type
  BreakRoom;                              !- Standards Space Type

OS:Rendering:Color,
  {530ddc7b-1b75-4a88-ab29-f47a261f2e5b}, !- Handle
  Rendering Color 1,                      !- Name
  230,                                    !- Rendering Red Value
  157,                                    !- Rendering Green Value
  120;                                    !- Rendering Blue Value

OS:DefaultScheduleSet,
  {997749f1-419e-47b0-ba7c-55ee89729f9d}, !- Handle
  189.1-2009 - Office - BreakRoom - CZ1-3 Schedule Set, !- Name
  ,                                       !- Hours of Operation Schedule Name
  {2294769c-bce5-434e-b54e-10d22a991073}, !- Number of People Schedule Name
  {26547c0d-f738-4ad3-bb31-4e43670ff4ec}, !- People Activity Level Schedule Name
  {f62e0b27-6653-4d03-ad4b-02192b0af7cd}, !- Lighting Schedule Name
  {8feaa334-ef42-4d6f-981e-7f929970ce70}, !- Electric Equipment Schedule Name
  ,                                       !- Gas Equipment Schedule Name
  ,                                       !- Hot Water Equipment Schedule Name
  {bd9d2692-841e-44f5-a142-3d8a23c4ee3c}, !- Infiltration Schedule Name
  ,                                       !- Steam Equipment Schedule Name
  ;                                       !- Other Equipment Schedule Name

OS:Lights:Definition,
  {53e4c804-f476-4fe6-aaab-24a07a772134}, !- Handle
  189.1-2009 - Office - BreakRoom - CZ1-3 Lights Definition, !- Name
  Watts/Area,                             !- Design Level Calculation Method
  ,                                       !- Lighting Level {W}
  11.6250232500465,                       !- Watts per Space Floor Area {W/m2}
  ;                                       !- Watts per Person {W/person}

OS:Lights,
  {19502b0e-d7eb-4a6f-8f50-8cb04ca0504b}, !- Handle
  189.1-2009 - Office - BreakRoom - CZ1-3 Lights, !- Name
  {53e4c804-f476-4fe6-aaab-24a07a772134}, !- Lights Definition Name
  {647d96f7-6663-4d94-8327-cc0fa46bc791}; !- Space or SpaceType Name

OS:Schedule:Ruleset,
  {f62e0b27-6653-4d03-ad4b-02192b0af7cd}, ! Handle
  Office Bldg Light,                      ! Name
  {fc31e2d1-5f87-4961-8d70-e106074a042e}, ! Schedule Type Limits Name
  {a88b3bf2-f6af-40b2-a201-bfeeac18fde8}, ! Default Day Schedule Name
  {5c44775b-a656-43a6-96b8-55ae1ef98fcd}, ! Summer Design Day Schedule Name
  {bbee67f2-1de6-459d-a074-ac9193ff3ba9}; ! Winter Design Day Schedule Name

OS:ScheduleTypeLimits,
  {fc31e2d1-5f87-4961-8d70-e106074a042e}, ! Handle
  Fraction,                               ! Name
  0,                                      ! Lower Limit Value
  1,                                      ! Upper Limit Value
  CONTINUOUS;                             ! Numeric Type

OS:Schedule:Day,
  {a88b3bf2-f6af-40b2-a201-bfeeac18fde8}, ! Handle
  Office Bldg Light Default Schedule,     ! Name
  {fc31e2d1-5f87-4961-8d70-e106074a042e}, ! Schedule Type Limits Name
  ,                                       ! Interpolate to Timestep
  5,                                      !- Hour 1
  0,                                      !- Minute 1
  0.05,                                   !- Value Until Time 1
  7,                                      !- Hour 2
  0,                                      !- Minute 2
  0.1,                                    !- Value Until Time 2
  8,                                      !- Hour 3
  0,                                      !- Minute 3
  0.3,                                    !- Value Until Time 3
  17,                                     !- Hour 4
  0,                                      !- Minute 4
  0.9,                                    !- Value Until Time 4
  18,                                     !- Hour 5
  0,                                      !- Minute 5
  0.7,                                    !- Value Until Time 5
  20,                                     !- Hour 6
  0,                                      !- Minute 6
  0.5,                                    !- Value Until Time 6
  22,                                     !- Hour 7
  0,                                      !- Minute 7
  0.3,                                    !- Value Until Time 7
  23,                                     !- Hour 8
  0,                                      !- Minute 8
  0.1,                                    !- Value Until Time 8
  24,                                     !- Hour 9
  0,                                      !- Minute 9
  0.05;                                   !- Value Until Time 9

OS:Schedule:Day,
  {5c44775b-a656-43a6-96b8-55ae1ef98fcd}, ! Handle
  Office Bldg Light Summer Design Day,    ! Name
  {fc31e2d1-5f87-4961-8d70-e106074a042e}, ! Schedule Type Limits Name
  ,                                       ! Interpolate to Timestep
  24,                                     ! Hour 1
  0,                                      ! Minute 1
  1;                                      ! Value Until Time 1

OS:Schedule:Day,
  {bbee67f2-1de6-459d-a074-ac9193ff3ba9}, ! Handle
  Office Bldg Light Winter Design Day,    ! Name
  {fc31e2d1-5f87-4961-8d70-e106074a042e}, ! Schedule Type Limits Name
  ,                                       ! Interpolate to Timestep
  24,                                     ! Hour 1
  0,                                      ! Minute 1
  0;                                      ! Value Until Time 1

OS:Schedule:Rule,
  {92fbd6ae-d76f-4f13-88c6-44f61c05d8e5}, ! Handle
  Office Bldg Light Rule 1,               ! Name
  {f62e0b27-6653-4d03-ad4b-02192b0af7cd}, ! Schedule Ruleset Name
  0,                                      ! Rule Order
  {999c072b-7be3-49ac-8174-0c30b2fdb6f8}, ! Day Schedule Name
  Yes,                                    ! Apply Sunday
  No,                                     ! Apply Monday
  No,                                     ! Apply Tuesday
  No,                                     ! Apply Wednesday
  No,                                     ! Apply Thursday
  No,                                     ! Apply Friday
  No,                                     ! Apply Saturday
  ,                                       ! Apply Holiday
  DateRange,                              ! Date Specification Type
  1,                                      ! Start Month
  1,                                      ! Start Day
  12,                                     ! End Month
  31;                                     ! End Day

OS:Schedule:Day,
  {999c072b-7be3-49ac-8174-0c30b2fdb6f8}, ! Handle
  Office Bldg Light Rule 1 Day Schedule,  ! Name
  {fc31e2d1-5f87-4961-8d70-e106074a042e}, ! Schedule Type Limits Name
  ,                                       ! Interpolate to Timestep
  24,                                     ! Hour 1
  0,                                      ! Minute 1
  0.050000000000000003;                   ! Value Until Time 1

OS:Schedule:Rule,
  {d8bb33ce-4281-4cd0-9e11-042225cf5f24}, ! Handle
  Office Bldg Light Rule 2,               ! Name
  {f62e0b27-6653-4d03-ad4b-02192b0af7cd}, ! Schedule Ruleset Name
  1,                                      ! Rule Order
  {44872bc3-7d43-4a6d-8aa1-c495c4457c2b}, ! Day Schedule Name
  No,                                     ! Apply Sunday
  No,                                     ! Apply Monday
  No,                                     ! Apply Tuesday
  No,                                     ! Apply Wednesday
  No,                                     ! Apply Thursday
  No,                                     ! Apply Friday
  Yes,                                    ! Apply Saturday
  ,                                       ! Apply Holiday
  DateRange,                              ! Date Specification Type
  1,                                      ! Start Month
  1,                                      ! Start Day
  12,                                     ! End Month
  31;                                     ! End Day

OS:Schedule:Day,
  {44872bc3-7d43-4a6d-8aa1-c495c4457c2b}, ! Handle
  Office Bldg Light Rule 2 Day Schedule,  ! Name
  {fc31e2d1-5f87-4961-8d70-e106074a042e}, ! Schedule Type Limits Name
  ,                                       ! Interpolate to Timestep
  6,                                      ! Hour 1
  0,                                      ! Minute 1
  0.050000000000000003,                   ! Value Until Time 1
  8,                                      ! Hour 2
  0,                                      ! Minute 2
  0.10000000000000001,                    ! Value Until Time 2
  14,                                     ! Hour 3
  0,                                      ! Minute 3
  0.5,                                    ! Value Until Time 3
  17,                                     ! Hour 4
  0,                                      ! Minute 4
  0.14999999999999999,                    ! Value Until Time 4
  24,                                     ! Hour 5
  0,                                      ! Minute 5
  0.050000000000000003;                   ! Value Until Time 5

OS:DesignSpecification:OutdoorAir,
  {750bb77c-7863-492f-bbb3-4b7b8958d5f1}, !- Handle
  189.1-2009 - Office - BreakRoom - CZ1-3 Ventilation, !- Name
  Sum,                                    !- Outdoor Air Method
  0.007079211648,                         !- Outdoor Air Flow per Person {m3/s-person}
  ,                                       !- Outdoor Air Flow per Floor Area {m3/s-m2}
  ,                                       !- Outdoor Air Flow Rate {m3/s}
  ,                                       !- Outdoor Air Flow Air Changes per Hour {1/hr}
  ;                                       !- Outdoor Air Flow Rate Fraction Schedule Name

OS:People:Definition,
  {ba7fd838-7cb7-4853-9077-7253a112be0f}, !- Handle
  189.1-2009 - Office - BreakRoom - CZ1-3 People Definition, !- Name
  People/Area,                            !- Number of People Calculation Method
  ,                                       !- Number of People {people}
  0.538195520835486,                      !- People per Space Floor Area {person/m2}
  ,                                       !- Space Floor Area per Person {m2/person}
  0.3;                                    !- Fraction Radiant

OS:People,
  {3d2ba979-bdac-4995-b78e-789db1e86707}, !- Handle
  189.1-2009 - Office - BreakRoom - CZ1-3 People, !- Name
  {ba7fd838-7cb7-4853-9077-7253a112be0f}, !- People Definition Name
  {647d96f7-6663-4d94-8327-cc0fa46bc791}; !- Space or SpaceType Name

OS:Schedule:Ruleset,
  {2294769c-bce5-434e-b54e-10d22a991073}, ! Handle
  Office Misc Occ,                        ! Name
  {fc31e2d1-5f87-4961-8d70-e106074a042e}, ! Schedule Type Limits Name
  {08552d90-2926-47fa-803c-347171db2fd0}, ! Default Day Schedule Name
  {5ca35b5a-dae4-417b-853b-040629f69b05}, ! Summer Design Day Schedule Name
  {a97ffd4b-691e-4f45-a2ab-5d9df9aa6be5}; ! Winter Design Day Schedule Name

OS:Schedule:Day,
  {08552d90-2926-47fa-803c-347171db2fd0}, ! Handle
  Office Bldg Occ Default Schedule 1,     ! Name
  {fc31e2d1-5f87-4961-8d70-e106074a042e}, ! Schedule Type Limits Name
  ,                                       ! Interpolate to Timestep
  6,                                      !- Hour 1
  0,                                      !- Minute 1
  0,                                      !- Value Until Time 1
  7,                                      !- Hour 2
  0,                                      !- Minute 2
  0.100000001490116,                      !- Value Until Time 2
  8,                                      !- Hour 3
  0,                                      !- Minute 3
  0.200000002980232,                      !- Value Until Time 3
  20,                                     !- Hour 4
  0,                                      !- Minute 4
  0.400000005960464,                      !- Value Until Time 4
  22,                                     !- Hour 5
  0,                                      !- Minute 5
  0.100000001490116,                      !- Value Until Time 5
  24,                                     !- Hour 6
  0,                                      !- Minute 6
  0.0500000007450581;                     !- Value Until Time 6

OS:Schedule:Day,
  {5ca35b5a-dae4-417b-853b-040629f69b05}, ! Handle
  Office Bldg Occ Summer Design Day 1,    ! Name
  {fc31e2d1-5f87-4961-8d70-e106074a042e}, ! Schedule Type Limits Name
  ,                                       ! Interpolate to Timestep
  6,                                      ! Hour 1
  0,                                      ! Minute 1
  0,                                      ! Value Until Time 1
  22,                                     ! Hour 2
  0,                                      ! Minute 2
  1,                                      ! Value Until Time 2
  24,                                     ! Hour 3
  0,                                      ! Minute 3
  0.050000000000000003;                   ! Value Until Time 3

OS:Schedule:Day,
  {a97ffd4b-691e-4f45-a2ab-5d9df9aa6be5}, ! Handle
  Office Bldg Occ Winter Design Day 1,    ! Name
  {fc31e2d1-5f87-4961-8d70-e106074a042e}, ! Schedule Type Limits Name
  ,                                       ! Interpolate to Timestep
  24,                                     ! Hour 1
  0,                                      ! Minute 1
  0;                                      ! Value Until Time 1

OS:Schedule:Rule,
  {f7ef2cce-b8a1-43bb-b4cb-5423469e451d}, ! Handle
  Office Misc Occ Rule 1,                 ! Name
  {2294769c-bce5-434e-b54e-10d22a991073}, ! Schedule Ruleset Name
  0,                                      ! Rule Order
  {7c74b002-bae8-4d87-a49e-3b86d343cfc9}, ! Day Schedule Name
  Yes,                                    ! Apply Sunday
  No,                                     ! Apply Monday
  No,                                     ! Apply Tuesday
  No,                                     ! Apply Wednesday
  No,                                     ! Apply Thursday
  No,                                     ! Apply Friday
  No,                                     ! Apply Saturday
  ,                                       ! Apply Holiday
  DateRange,                              ! Date Specification Type
  1,                                      ! Start Month
  1,                                      ! Start Day
  12,                                     ! End Month
  31;                                     ! End Day

OS:Schedule:Day,
  {7c74b002-bae8-4d87-a49e-3b86d343cfc9}, ! Handle
  Office Bldg Occ Rule 1 Day Schedule 1,  ! Name
  {fc31e2d1-5f87-4961-8d70-e106074a042e}, ! Schedule Type Limits Name
  ,                                       ! Interpolate to Timestep
  24,                                     ! Hour 1
  0,                                      ! Minute 1
  0;                                      ! Value Until Time 1

OS:Schedule:Rule,
  {b40cdff5-9183-4839-b6ff-a3ef4138c3a9}, ! Handle
  Office Misc Occ Rule 2,                 ! Name
  {2294769c-bce5-434e-b54e-10d22a991073}, ! Schedule Ruleset Name
  1,                                      ! Rule Order
  {ede0b586-92ea-4b5d-a911-f08952b471c6}, ! Day Schedule Name
  No,                                     ! Apply Sunday
  No,                                     ! Apply Monday
  No,                                     ! Apply Tuesday
  No,                                     ! Apply Wednesday
  No,                                     ! Apply Thursday
  No,                                     ! Apply Friday
  Yes,                                    ! Apply Saturday
  ,                                       ! Apply Holiday
  DateRange,                              ! Date Specification Type
  1,                                      ! Start Month
  1,                                      ! Start Day
  12,                                     ! End Month
  31;                                     ! End Day

OS:Schedule:Day,
  {ede0b586-92ea-4b5d-a911-f08952b471c6}, ! Handle
  Office Bldg Occ Rule 2 Day Schedule 1,  ! Name
  {fc31e2d1-5f87-4961-8d70-e106074a042e}, ! Schedule Type Limits Name
  ,                                       ! Interpolate to Timestep
  6,                                      !- Hour 1
  0,                                      !- Minute 1
  0,                                      !- Value Until Time 1
  8,                                      !- Hour 2
  0,                                      !- Minute 2
  0.100000001490116,                      !- Value Until Time 2
  14,                                     !- Hour 3
  0,                                      !- Minute 3
  0.25,                                   !- Value Until Time 3
  17,                                     !- Hour 4
  0,                                      !- Minute 4
  0.100000001490116,                      !- Value Until Time 4
  24,                                     !- Hour 5
  0,                                      !- Minute 5
  0;                                      !- Value Until Time 5

OS:Schedule:Ruleset,
  {26547c0d-f738-4ad3-bb31-4e43670ff4ec}, ! Handle
  Office Activity,                        ! Name
  {6034b2bc-c6cc-48af-8d6d-bf31a6b523bb}, ! Schedule Type Limits Name
  {ad3453a5-745e-4776-8f93-562b7907cfef}, ! Default Day Schedule Name
  {b0619efb-7610-4e0f-95ec-0d543a48a5d3}, ! Summer Design Day Schedule Name
  {0540b738-07ee-47d8-873a-67741867ddd2}; ! Winter Design Day Schedule Name

OS:ScheduleTypeLimits,
  {6034b2bc-c6cc-48af-8d6d-bf31a6b523bb}, !- Handle
  ActivityLevel,                          !- Name
  0,                                      !- Lower Limit Value {BasedOnField A4}
  ,                                       !- Upper Limit Value {BasedOnField A4}
  Continuous,                             !- Numeric Type
  ActivityLevel;                          !- Unit Type

OS:Schedule:Day,
  {ad3453a5-745e-4776-8f93-562b7907cfef}, ! Handle
  Office Activity Default Schedule,       ! Name
  {6034b2bc-c6cc-48af-8d6d-bf31a6b523bb}, ! Schedule Type Limits Name
  ,                                       ! Interpolate to Timestep
  24,                                     !- Hour 1
  0,                                      !- Minute 1
  132;                                    !- Value Until Time 1

OS:Schedule:Day,
  {b0619efb-7610-4e0f-95ec-0d543a48a5d3}, ! Handle
  Office Activity Summer Design Day,      ! Name
  {6034b2bc-c6cc-48af-8d6d-bf31a6b523bb}, ! Schedule Type Limits Name
  ,                                       ! Interpolate to Timestep
  24,                                     !- Hour 1
  0,                                      !- Minute 1
  132;                                    !- Value Until Time 1

OS:Schedule:Day,
  {0540b738-07ee-47d8-873a-67741867ddd2}, ! Handle
  Office Activity Winter Design Day,      ! Name
  {6034b2bc-c6cc-48af-8d6d-bf31a6b523bb}, ! Schedule Type Limits Name
  ,                                       ! Interpolate to Timestep
  24,                                     !- Hour 1
  0,                                      !- Minute 1
  132;                                    !- Value Until Time 1

OS:SpaceInfiltration:DesignFlowRate,
  {2e2d2018-9f91-4e91-a643-90cd5c126cea}, !- Handle
  189.1-2009 - Office - BreakRoom - CZ1-3 Infiltration, !- Name
  {647d96f7-6663-4d94-8327-cc0fa46bc791}, !- Space or SpaceType Name
  ,                                       !- Schedule Name
  Flow/ExteriorArea,                      !- Design Flow Rate Calculation Method
  ,                                       !- Design Flow Rate {m3/s}
  ,                                       !- Flow per Space Floor Area {m3/s-m2}
  0.00030226,                             !- Flow per Exterior Surface Area {m3/s-m2}
  ,                                       !- Air Changes per Hour {1/hr}
  ,                                       !- Constant Term Coefficient
  ,                                       !- Temperature Term Coefficient
  ,                                       !- Velocity Term Coefficient
  ;                                       !- Velocity Squared Term Coefficient

OS:Schedule:Ruleset,
  {bd9d2692-841e-44f5-a142-3d8a23c4ee3c}, ! Handle
  Office Infil Quarter On,                ! Name
  {fc31e2d1-5f87-4961-8d70-e106074a042e}, ! Schedule Type Limits Name
  {7c50b1fc-90b5-4dd3-b820-9a5a498ada32}, ! Default Day Schedule Name
  {80f161fa-b10c-4038-9bea-958803b8d1a1}, ! Summer Design Day Schedule Name
  {82bd8d20-6fca-4009-bab6-b6bc980cdd9e}; ! Winter Design Day Schedule Name

OS:Schedule:Day,
  {7c50b1fc-90b5-4dd3-b820-9a5a498ada32}, ! Handle
  Office Infil Quarter On Default Schedule, ! Name
  {fc31e2d1-5f87-4961-8d70-e106074a042e}, ! Schedule Type Limits Name
  ,                                       ! Interpolate to Timestep
  6,                                      !- Hour 1
  0,                                      !- Minute 1
  1,                                      !- Value Until Time 1
  22,                                     !- Hour 2
  0,                                      !- Minute 2
  0.25,                                   !- Value Until Time 2
  24,                                     !- Hour 3
  0,                                      !- Minute 3
  1;                                      !- Value Until Time 3

OS:Schedule:Day,
  {80f161fa-b10c-4038-9bea-958803b8d1a1}, ! Handle
  Office Infil Quarter On Summer Design Day, ! Name
  {fc31e2d1-5f87-4961-8d70-e106074a042e}, ! Schedule Type Limits Name
  ,                                       ! Interpolate to Timestep
  6,                                      ! Hour 1
  0,                                      ! Minute 1
  1,                                      ! Value Until Time 1
  22,                                     ! Hour 2
  0,                                      ! Minute 2
  0.25,                                   ! Value Until Time 2
  24,                                     ! Hour 3
  0,                                      ! Minute 3
  1;                                      ! Value Until Time 3

OS:Schedule:Day,
  {82bd8d20-6fca-4009-bab6-b6bc980cdd9e}, ! Handle
  Office Infil Quarter On Winter Design Day, ! Name
  {fc31e2d1-5f87-4961-8d70-e106074a042e}, ! Schedule Type Limits Name
  ,                                       ! Interpolate to Timestep
  6,                                      ! Hour 1
  0,                                      ! Minute 1
  1,                                      ! Value Until Time 1
  18,                                     ! Hour 2
  0,                                      ! Minute 2
  0.25,                                   ! Value Until Time 2
  24,                                     ! Hour 3
  0,                                      ! Minute 3
  1;                                      ! Value Until Time 3

OS:Schedule:Rule,
  {64911a4d-388c-4811-84f5-c55b5cad8a1c}, ! Handle
  Office Infil Quarter On Rule 1,         ! Name
  {bd9d2692-841e-44f5-a142-3d8a23c4ee3c}, ! Schedule Ruleset Name
  0,                                      ! Rule Order
  {4146e2b0-a5d1-4f1c-aa1a-4847ffed83ad}, ! Day Schedule Name
  Yes,                                    ! Apply Sunday
  No,                                     ! Apply Monday
  No,                                     ! Apply Tuesday
  No,                                     ! Apply Wednesday
  No,                                     ! Apply Thursday
  No,                                     ! Apply Friday
  No,                                     ! Apply Saturday
  ,                                       ! Apply Holiday
  DateRange,                              ! Date Specification Type
  1,                                      ! Start Month
  1,                                      ! Start Day
  12,                                     ! End Month
  31;                                     ! End Day

OS:Schedule:Day,
  {4146e2b0-a5d1-4f1c-aa1a-4847ffed83ad}, ! Handle
  Office Infil Quarter On Rule 1 Day Schedule, ! Name
  {fc31e2d1-5f87-4961-8d70-e106074a042e}, ! Schedule Type Limits Name
  ,                                       ! Interpolate to Timestep
  24,                                     ! Hour 1
  0,                                      ! Minute 1
  1;                                      ! Value Until Time 1

OS:Schedule:Rule,
  {689f3274-1790-4122-8666-f42442ec442f}, ! Handle
  Office Infil Quarter On Rule 2,         ! Name
  {bd9d2692-841e-44f5-a142-3d8a23c4ee3c}, ! Schedule Ruleset Name
  1,                                      ! Rule Order
  {74231f23-4151-496e-ae08-a57a92a7a3b8}, ! Day Schedule Name
  No,                                     ! Apply Sunday
  No,                                     ! Apply Monday
  No,                                     ! Apply Tuesday
  No,                                     ! Apply Wednesday
  No,                                     ! Apply Thursday
  No,                                     ! Apply Friday
  Yes,                                    ! Apply Saturday
  ,                                       ! Apply Holiday
  DateRange,                              ! Date Specification Type
  1,                                      ! Start Month
  1,                                      ! Start Day
  12,                                     ! End Month
  31;                                     ! End Day

OS:Schedule:Day,
  {74231f23-4151-496e-ae08-a57a92a7a3b8}, ! Handle
  Office Infil Quarter On Rule 2 Day Schedule, ! Name
  {fc31e2d1-5f87-4961-8d70-e106074a042e}, ! Schedule Type Limits Name
  ,                                       ! Interpolate to Timestep
  6,                                      ! Hour 1
  0,                                      ! Minute 1
  1,                                      ! Value Until Time 1
  18,                                     ! Hour 2
  0,                                      ! Minute 2
  0.25,                                   ! Value Until Time 2
  24,                                     ! Hour 3
  0,                                      ! Minute 3
  1;                                      ! Value Until Time 3

OS:ElectricEquipment:Definition,
  {0a375c2b-910b-441a-b76b-1317e781d3ab}, !- Handle
  189.1-2009 - Office - BreakRoom - CZ1-3 Electric Equipment Definition, !- Name
  Watts/Area,                             !- Design Level Calculation Method
  ,                                       !- Design Level {W}
  48.0070404585254,                       !- Watts per Space Floor Area {W/m2}
  ;                                       !- Watts per Person {W/person}

OS:ElectricEquipment,
  {796107fd-4d8d-4a35-ad30-884c61a9ec00}, !- Handle
  189.1-2009 - Office - BreakRoom - CZ1-3 Electric Equipment, !- Name
  {0a375c2b-910b-441a-b76b-1317e781d3ab}, !- Electric Equipment Definition Name
  {647d96f7-6663-4d94-8327-cc0fa46bc791}; !- Space or SpaceType Name

OS:Schedule:Ruleset,
  {8feaa334-ef42-4d6f-981e-7f929970ce70}, ! Handle
  Office Bldg Equip,                      ! Name
  {fc31e2d1-5f87-4961-8d70-e106074a042e}, ! Schedule Type Limits Name
  {8c01b779-5622-4f2c-a477-457fdc1ef325}, ! Default Day Schedule Name
  {9da73391-1d9b-498a-8291-051761c20bea}, ! Summer Design Day Schedule Name
  {a72ec954-31f0-4ddb-a1cd-ee8f7f999b83}; ! Winter Design Day Schedule Name

OS:Schedule:Day,
  {8c01b779-5622-4f2c-a477-457fdc1ef325}, ! Handle
  Office Bldg Equip Default Schedule,     ! Name
  {fc31e2d1-5f87-4961-8d70-e106074a042e}, ! Schedule Type Limits Name
  ,                                       ! Interpolate to Timestep
  8,                                      !- Hour 1
  0,                                      !- Minute 1
  0.4,                                    !- Value Until Time 1
  12,                                     !- Hour 2
  0,                                      !- Minute 2
  0.9,                                    !- Value Until Time 2
  13,                                     !- Hour 3
  0,                                      !- Minute 3
  0.8,                                    !- Value Until Time 3
  17,                                     !- Hour 4
  0,                                      !- Minute 4
  0.9,                                    !- Value Until Time 4
  18,                                     !- Hour 5
  0,                                      !- Minute 5
  0.8,                                    !- Value Until Time 5
  20,                                     !- Hour 6
  0,                                      !- Minute 6
  0.6,                                    !- Value Until Time 6
  22,                                     !- Hour 7
  0,                                      !- Minute 7
  0.5,                                    !- Value Until Time 7
  24,                                     !- Hour 8
  0,                                      !- Minute 8
  0.4;                                    !- Value Until Time 8

OS:Schedule:Day,
  {9da73391-1d9b-498a-8291-051761c20bea}, ! Handle