
OS:Version,
  {b7dbd0cf-b663-4aec-96a7-d79d99cd4558}, !- Handle
  1.3.0;                                  !- Version Identifier

OS:SpaceType,
  {ca0106be-3477-4838-bae9-3d638f568458}, !- Handle
  189.1-2009 - Office - BreakRoom - CZ1-3, !- Name
  ,                                       !- Default Construction Set Name
  {59479d48-9201-41e9-9616-43dd221146e1}, !- Default Schedule Set Name
  {3356d4a9-25c2-4ae8-adca-50c32ecbac69}, !- Group Rendering Name
  {89235a84-39be-429c-be09-9882a77ed0c4}, !- Design Specification Outdoor Air Object Name
  Office,                                 !- Standards Building Type
  BreakRoom;                              !- Standards Space Type

OS:Rendering:Color,
  {3356d4a9-25c2-4ae8-adca-50c32ecbac69}, !- Handle
  Rendering Color 1,                      !- Name
  230,                                    !- Rendering Red Value
  157,                                    !- Rendering Green Value
  120;                                    !- Rendering Blue Value

OS:DefaultScheduleSet,
  {59479d48-9201-41e9-9616-43dd221146e1}, !- Handle
  189.1-2009 - Office - BreakRoom - CZ1-3 Schedule Set, !- Name
  ,                                       !- Hours of Operation Schedule Name
  {44ea1064-24b5-4814-942f-b345e3535627}, !- Number of People Schedule Name
  {d54f23c8-6112-45bc-bea3-4ea4053fd566}, !- People Activity Level Schedule Name
  {2830eb83-5577-4a77-80d2-53c2209e426d}, !- Lighting Schedule Name
  {86138775-0169-44e5-91fb-514328f21e45}, !- Electric Equipment Schedule Name
  ,                                       !- Gas Equipment Schedule Name
  ,                                       !- Hot Water Equipment Schedule Name
  {53964181-d91a-4d07-859f-e139b73703c9}, !- Infiltration Schedule Name
  ,                                       !- Steam Equipment Schedule Name
  ;                                       !- Other Equipment Schedule Name

OS:Lights:Definition,
  {a3116be6-5d1e-495f-9f1f-80dbc269b907}, !- Handle
  189.1-2009 - Office - BreakRoom - CZ1-3 Lights Definition, !- Name
  Watts/Area,                             !- Design Level Calculation Method
  ,                                       !- Lighting Level {W}
  11.6250232500465,                       !- Watts per Space Floor Area {W/m2}
  ;                                       !- Watts per Person {W/person}

OS:Lights,
  {79612763-d3ec-4a80-9d5c-2bf0e37280bc}, !- Handle
  189.1-2009 - Office - BreakRoom - CZ1-3 Lights, !- Name
  {a3116be6-5d1e-495f-9f1f-80dbc269b907}, !- Lights Definition Name
  {ca0106be-3477-4838-bae9-3d638f568458}; !- Space or SpaceType Name

OS:Schedule:Ruleset,
  {2830eb83-5577-4a77-80d2-53c2209e426d}, ! Handle
  Office Bldg Light,                      ! Name
  {0b8b9681-0d63-47f0-8392-15c77ad53137}, ! Schedule Type Limits Name
  {db5d9fa5-63d2-4dd2-b54b-ed4cdbd41264}, ! Default Day Schedule Name
  {d7742943-52b7-4448-88d4-64a53d215796}, ! Summer Design Day Schedule Name
  {58945dbe-cdbb-4645-8a6c-ff2b5dfa9db4}; ! Winter Design Day Schedule Name

OS:ScheduleTypeLimits,
  {0b8b9681-0d63-47f0-8392-15c77ad53137}, ! Handle
  Fraction,                               ! Name
  0,                                      ! Lower Limit Value
  1,                                      ! Upper Limit Value
  CONTINUOUS;                             ! Numeric Type

OS:Schedule:Day,
  {db5d9fa5-63d2-4dd2-b54b-ed4cdbd41264}, ! Handle
  Office Bldg Light Default Schedule,     ! Name
  {0b8b9681-0d63-47f0-8392-15c77ad53137}, ! Schedule Type Limits Name
  ,                                       ! Interpolate to Timestep
  5,                                      !- Hour 1
  0,                                      !- Minute 1
  0.05,                                   !- Value Until Time 1
  7,                                      !- Hour 2
  0,                                      !- Minute 2
  0.1,                                    !- Value Until Time 2
  8,                                      !- Hour 3
  0,                                      !- Minute 3
  0.3,                                    !- Value Until Time 3
  17,                                     !- Hour 4
  0,                                      !- Minute 4
  0.9,                                    !- Value Until Time 4
  18,                                     !- Hour 5
  0,                                      !- Minute 5
  0.7,                                    !- Value Until Time 5
  20,                                     !- Hour 6
  0,                                      !- Minute 6
  0.5,                                    !- Value Until Time 6
  22,                                     !- Hour 7
  0,                                      !- Minute 7
  0.3,                                    !- Value Until Time 7
  23,                                     !- Hour 8
  0,                                      !- Minute 8
  0.1,                                    !- Value Until Time 8
  24,                                     !- Hour 9
  0,                                      !- Minute 9
  0.05;                                   !- Value Until Time 9

OS:Schedule:Day,
  {d7742943-52b7-4448-88d4-64a53d215796}, ! Handle
  Office Bldg Light Summer Design Day,    ! Name
  {0b8b9681-0d63-47f0-8392-15c77ad53137}, ! Schedule Type Limits Name
  ,                                       ! Interpolate to Timestep
  24,                                     ! Hour 1
  0,                                      ! Minute 1
  1;                                      ! Value Until Time 1

OS:Schedule:Day,
  {58945dbe-cdbb-4645-8a6c-ff2b5dfa9db4}, ! Handle
  Office Bldg Light Winter Design Day,    ! Name
  {0b8b9681-0d63-47f0-8392-15c77ad53137}, ! Schedule Type Limits Name
  ,                                       ! Interpolate to Timestep
  24,                                     ! Hour 1
  0,                                      ! Minute 1
  0;                                      ! Value Until Time 1

OS:Schedule:Rule,
  {8dc7de15-7597-4985-9610-038f6604ea36}, ! Handle
  Office Bldg Light Rule 1,               ! Name
  {2830eb83-5577-4a77-80d2-53c2209e426d}, ! Schedule Ruleset Name
  0,                                      ! Rule Order
  {b770a37d-dec5-4d27-a66c-e6bc3da6bdac}, ! Day Schedule Name
  Yes,                                    ! Apply Sunday
  No,                                     ! Apply Monday
  No,                                     ! Apply Tuesday
  No,                                     ! Apply Wednesday
  No,                                     ! Apply Thursday
  No,                                     ! Apply Friday
  No,                                     ! Apply Saturday
  ,                                       ! Apply Holiday
  DateRange,                              ! Date Specification Type
  1,                                      ! Start Month
  1,                                      ! Start Day
  12,                                     ! End Month
  31;                                     ! End Day

OS:Schedule:Day,
  {b770a37d-dec5-4d27-a66c-e6bc3da6bdac}, ! Handle
  Office Bldg Light Rule 1 Day Schedule,  ! Name
  {0b8b9681-0d63-47f0-8392-15c77ad53137}, ! Schedule Type Limits Name
  ,                                       ! Interpolate to Timestep
  24,                                     ! Hour 1
  0,                                      ! Minute 1
  0.050000000000000003;                   ! Value Until Time 1

OS:Schedule:Rule,
  {f662b428-0fd5-4807-9a0e-7b09ec8319d3}, ! Handle
  Office Bldg Light Rule 2,               ! Name
  {2830eb83-5577-4a77-80d2-53c2209e426d}, ! Schedule Ruleset Name
  1,                                      ! Rule Order
  {36493e54-b84b-49d2-ad5c-eca0a38e7776}, ! Day Schedule Name
  No,                                     ! Apply Sunday
  No,                                     ! Apply Monday
  No,                                     ! Apply Tuesday
  No,                                     ! Apply Wednesday
  No,                                     ! Apply Thursday
  No,                                     ! Apply Friday
  Yes,                                    ! Apply Saturday
  ,                                       ! Apply Holiday
  DateRange,                              ! Date Specification Type
  1,                                      ! Start Month
  1,                                      ! Start Day
  12,                                     ! End Month
  31;                                     ! End Day

OS:Schedule:Day,
  {36493e54-b84b-49d2-ad5c-eca0a38e7776}, ! Handle
  Office Bldg Light Rule 2 Day Schedule,  ! Name
  {0b8b9681-0d63-47f0-8392-15c77ad53137}, ! Schedule Type Limits Name
  ,                                       ! Interpolate to Timestep
  6,                                      ! Hour 1
  0,                                      ! Minute 1
  0.050000000000000003,                   ! Value Until Time 1
  8,                                      ! Hour 2
  0,                                      ! Minute 2
  0.10000000000000001,                    ! Value Until Time 2
  14,                                     ! Hour 3
  0,                                      ! Minute 3
  0.5,                                    ! Value Until Time 3
  17,                                     ! Hour 4
  0,                                      ! Minute 4
  0.14999999999999999,                    ! Value Until Time 4
  24,                                     ! Hour 5
  0,                                      ! Minute 5
  0.050000000000000003;                   ! Value Until Time 5

OS:DesignSpecification:OutdoorAir,
  {89235a84-39be-429c-be09-9882a77ed0c4}, !- Handle
  189.1-2009 - Office - BreakRoom - CZ1-3 Ventilation, !- Name
  Sum,                                    !- Outdoor Air Method
  0.007079211648,                         !- Outdoor Air Flow per Person {m3/s-person}
  ,                                       !- Outdoor Air Flow per Floor Area {m3/s-m2}
  ,                                       !- Outdoor Air Flow Rate {m3/s}
  ,                                       !- Outdoor Air Flow Air Changes per Hour {1/hr}
  ;                                       !- Outdoor Air Flow Rate Fraction Schedule Name

OS:People:Definition,
  {113349cd-4d70-42b4-9b57-7917be75e030}, !- Handle
  189.1-2009 - Office - BreakRoom - CZ1-3 People Definition, !- Name
  People/Area,                            !- Number of People Calculation Method
  ,                                       !- Number of People {people}
  0.538195520835486,                      !- People per Space Floor Area {person/m2}
  ,                                       !- Space Floor Area per Person {m2/person}
  0.3;                                    !- Fraction Radiant

OS:People,
  {a808ee71-c625-4376-b9c7-865692c1b447}, !- Handle
  189.1-2009 - Office - BreakRoom - CZ1-3 People, !- Name
  {113349cd-4d70-42b4-9b57-7917be75e030}, !- People Definition Name
  {ca0106be-3477-4838-bae9-3d638f568458}; !- Space or SpaceType Name

OS:Schedule:Ruleset,
  {44ea1064-24b5-4814-942f-b345e3535627}, ! Handle
  Office Misc Occ,                        ! Name
  {0b8b9681-0d63-47f0-8392-15c77ad53137}, ! Schedule Type Limits Name
  {f31012a6-54d8-4b80-bc12-d1d96cb64519}, ! Default Day Schedule Name
  {94f4f7d7-50af-4c35-9a05-3040dc818a0a}, ! Summer Design Day Schedule Name
  {752836ee-93da-4555-ac3c-d06e42466296}; ! Winter Design Day Schedule Name

OS:Schedule:Day,
  {f31012a6-54d8-4b80-bc12-d1d96cb64519}, ! Handle
  Office Bldg Occ Default Schedule 1,     ! Name
  {0b8b9681-0d63-47f0-8392-15c77ad53137}, ! Schedule Type Limits Name
  ,                                       ! Interpolate to Timestep
  6,                                      !- Hour 1
  0,                                      !- Minute 1
  0,                                      !- Value Until Time 1
  7,                                      !- Hour 2
  0,                                      !- Minute 2
  0.100000001490116,                      !- Value Until Time 2
  8,                                      !- Hour 3
  0,                                      !- Minute 3
  0.200000002980232,                      !- Value Until Time 3
  20,                                     !- Hour 4
  0,                                      !- Minute 4
  0.400000005960464,                      !- Value Until Time 4
  22,                                     !- Hour 5
  0,                                      !- Minute 5
  0.100000001490116,                      !- Value Until Time 5
  24,                                     !- Hour 6
  0,                                      !- Minute 6
  0.0500000007450581;                     !- Value Until Time 6

OS:Schedule:Day,
  {94f4f7d7-50af-4c35-9a05-3040dc818a0a}, ! Handle
  Office Bldg Occ Summer Design Day 1,    ! Name
  {0b8b9681-0d63-47f0-8392-15c77ad53137}, ! Schedule Type Limits Name
  ,                                       ! Interpolate to Timestep
  6,                                      ! Hour 1
  0,                                      ! Minute 1
  0,                                      ! Value Until Time 1
  22,                                     ! Hour 2
  0,                                      ! Minute 2
  1,                                      ! Value Until Time 2
  24,                                     ! Hour 3
  0,                                      ! Minute 3
  0.050000000000000003;                   ! Value Until Time 3

OS:Schedule:Day,
  {752836ee-93da-4555-ac3c-d06e42466296}, ! Handle
  Office Bldg Occ Winter Design Day 1,    ! Name
  {0b8b9681-0d63-47f0-8392-15c77ad53137}, ! Schedule Type Limits Name
  ,                                       ! Interpolate to Timestep
  24,                                     ! Hour 1
  0,                                      ! Minute 1
  0;                                      ! Value Until Time 1

OS:Schedule:Rule,
  {83a78142-6c1c-4454-816c-c997a85185ef}, ! Handle
  Office Misc Occ Rule 1,                 ! Name
  {44ea1064-24b5-4814-942f-b345e3535627}, ! Schedule Ruleset Name
  0,                                      ! Rule Order
  {52485131-fd27-4258-80a8-d0804549b439}, ! Day Schedule Name
  Yes,                                    ! Apply Sunday
  No,                                     ! Apply Monday
  No,                                     ! Apply Tuesday
  No,                                     ! Apply Wednesday
  No,                                     ! Apply Thursday
  No,                                     ! Apply Friday
  No,                                     ! Apply Saturday
  ,                                       ! Apply Holiday
  DateRange,                              ! Date Specification Type
  1,                                      ! Start Month
  1,                                      ! Start Day
  12,                                     ! End Month
  31;                                     ! End Day

OS:Schedule:Day,
  {52485131-fd27-4258-80a8-d0804549b439}, ! Handle
  Office Bldg Occ Rule 1 Day Schedule 1,  ! Name
  {0b8b9681-0d63-47f0-8392-15c77ad53137}, ! Schedule Type Limits Name
  ,                                       ! Interpolate to Timestep
  24,                                     ! Hour 1
  0,                                      ! Minute 1
  0;                                      ! Value Until Time 1

OS:Schedule:Rule,
  {b700890e-2712-474e-98d1-8ce3e4135ed7}, ! Handle
  Office Misc Occ Rule 2,                 ! Name
  {44ea1064-24b5-4814-942f-b345e3535627}, ! Schedule Ruleset Name
  1,                                      ! Rule Order
  {dbf3577a-90ac-4a73-9ff7-1a02360e831a}, ! Day Schedule Name
  No,                                     ! Apply Sunday
  No,                                     ! Apply Monday
  No,                                     ! Apply Tuesday
  No,                                     ! Apply Wednesday
  No,                                     ! Apply Thursday
  No,                                     ! Apply Friday
  Yes,                                    ! Apply Saturday
  ,                                       ! Apply Holiday
  DateRange,                              ! Date Specification Type
  1,                                      ! Start Month
  1,                                      ! Start Day
  12,                                     ! End Month
  31;                                     ! End Day

OS:Schedule:Day,
  {dbf3577a-90ac-4a73-9ff7-1a02360e831a}, ! Handle
  Office Bldg Occ Rule 2 Day Schedule 1,  ! Name
  {0b8b9681-0d63-47f0-8392-15c77ad53137}, ! Schedule Type Limits Name
  ,                                       ! Interpolate to Timestep
  6,                                      !- Hour 1
  0,                                      !- Minute 1
  0,                                      !- Value Until Time 1
  8,                                      !- Hour 2
  0,                                      !- Minute 2
  0.100000001490116,                      !- Value Until Time 2
  14,                                     !- Hour 3
  0,                                      !- Minute 3
  0.25,                                   !- Value Until Time 3
  17,                                     !- Hour 4
  0,                                      !- Minute 4
  0.100000001490116,                      !- Value Until Time 4
  24,                                     !- Hour 5
  0,                                      !- Minute 5
  0;                                      !- Value Until Time 5

OS:Schedule:Ruleset,
  {d54f23c8-6112-45bc-bea3-4ea4053fd566}, ! Handle
  Office Activity,                        ! Name
  {f087a7b3-9cfe-47ad-882e-af666e7e2187}, ! Schedule Type Limits Name
  {1f86d4b4-f648-479f-a77e-d72e82988e01}, ! Default Day Schedule Name
  {55ecd5d0-740a-4444-98fb-24111758593b}, ! Summer Design Day Schedule Name
  {689b98bc-fb10-4dc2-96b3-dcc4510524ff}; ! Winter Design Day Schedule Name

OS:ScheduleTypeLimits,
  {f087a7b3-9cfe-47ad-882e-af666e7e2187}, !- Handle
  ActivityLevel,                          !- Name
  0,                                      !- Lower Limit Value {BasedOnField A4}
  ,                                       !- Upper Limit Value {BasedOnField A4}
  Continuous,                             !- Numeric Type
  ActivityLevel;                          !- Unit Type

OS:Schedule:Day,
  {1f86d4b4-f648-479f-a77e-d72e82988e01}, ! Handle
  Office Activity Default Schedule,       ! Name
  {f087a7b3-9cfe-47ad-882e-af666e7e2187}, ! Schedule Type Limits Name
  ,                                       ! Interpolate to Timestep
  24,                                     !- Hour 1
  0,                                      !- Minute 1
  132;                                    !- Value Until Time 1

OS:Schedule:Day,
  {55ecd5d0-740a-4444-98fb-24111758593b}, ! Handle
  Office Activity Summer Design Day,      ! Name
  {f087a7b3-9cfe-47ad-882e-af666e7e2187}, ! Schedule Type Limits Name
  ,                                       ! Interpolate to Timestep
  24,                                     !- Hour 1
  0,                                      !- Minute 1
  132;                                    !- Value Until Time 1

OS:Schedule:Day,
  {689b98bc-fb10-4dc2-96b3-dcc4510524ff}, ! Handle
  Office Activity Winter Design Day,      ! Name
  {f087a7b3-9cfe-47ad-882e-af666e7e2187}, ! Schedule Type Limits Name
  ,                                       ! Interpolate to Timestep
  24,                                     !- Hour 1
  0,                                      !- Minute 1
  132;                                    !- Value Until Time 1

OS:SpaceInfiltration:DesignFlowRate,
  {c07cdeb0-7008-4e71-a419-ece33bf0e1ec}, !- Handle
  189.1-2009 - Office - BreakRoom - CZ1-3 Infiltration, !- Name
  {ca0106be-3477-4838-bae9-3d638f568458}, !- Space or SpaceType Name
  ,                                       !- Schedule Name
  Flow/ExteriorArea,                      !- Design Flow Rate Calculation Method
  ,                                       !- Design Flow Rate {m3/s}
  ,                                       !- Flow per Space Floor Area {m3/s-m2}
  0.00030226,                             !- Flow per Exterior Surface Area {m3/s-m2}
  ,                                       !- Air Changes per Hour {1/hr}
  ,                                       !- Constant Term Coefficient
  ,                                       !- Temperature Term Coefficient
  ,                                       !- Velocity Term Coefficient
  ;                                       !- Velocity Squared Term Coefficient

OS:Schedule:Ruleset,
  {53964181-d91a-4d07-859f-e139b73703c9}, ! Handle
  Office Infil Quarter On,                ! Name
  {0b8b9681-0d63-47f0-8392-15c77ad53137}, ! Schedule Type Limits Name
  {2482b74c-8114-4290-b224-f73a23bfd339}, ! Default Day Schedule Name
  {8f427488-b070-4c1e-8fc5-46431963df25}, ! Summer Design Day Schedule Name
  {6f7b02ea-e123-41a8-89d0-a4bed8d9c649}; ! Winter Design Day Schedule Name

OS:Schedule:Day,
  {2482b74c-8114-4290-b224-f73a23bfd339}, ! Handle
  Office Infil Quarter On Default Schedule, ! Name
  {0b8b9681-0d63-47f0-8392-15c77ad53137}, ! Schedule Type Limits Name
  ,                                       ! Interpolate to Timestep
  6,                                      !- Hour 1
  0,                                      !- Minute 1
  1,                                      !- Value Until Time 1
  22,                                     !- Hour 2
  0,                                      !- Minute 2
  0.25,                                   !- Value Until Time 2
  24,                                     !- Hour 3
  0,                                      !- Minute 3
  1;                                      !- Value Until Time 3

OS:Schedule:Day,
  {8f427488-b070-4c1e-8fc5-46431963df25}, ! Handle
  Office Infil Quarter On Summer Design Day, ! Name
  {0b8b9681-0d63-47f0-8392-15c77ad53137}, ! Schedule Type Limits Name
  ,                                       ! Interpolate to Timestep
  6,                                      ! Hour 1
  0,                                      ! Minute 1
  1,                                      ! Value Until Time 1
  22,                                     ! Hour 2
  0,                                      ! Minute 2
  0.25,                                   ! Value Until Time 2
  24,                                     ! Hour 3
  0,                                      ! Minute 3
  1;                                      ! Value Until Time 3

OS:Schedule:Day,
  {6f7b02ea-e123-41a8-89d0-a4bed8d9c649}, ! Handle
  Office Infil Quarter On Winter Design Day, ! Name
  {0b8b9681-0d63-47f0-8392-15c77ad53137}, ! Schedule Type Limits Name
  ,                                       ! Interpolate to Timestep
  6,                                      ! Hour 1
  0,                                      ! Minute 1
  1,                                      ! Value Until Time 1
  18,                                     ! Hour 2
  0,                                      ! Minute 2
  0.25,                                   ! Value Until Time 2
  24,                                     ! Hour 3
  0,                                      ! Minute 3
  1;                                      ! Value Until Time 3

OS:Schedule:Rule,
  {91b69031-eb85-409a-8271-da0c211bb47c}, ! Handle
  Office Infil Quarter On Rule 1,         ! Name
  {53964181-d91a-4d07-859f-e139b73703c9}, ! Schedule Ruleset Name
  0,                                      ! Rule Order
  {d8f149d0-bff2-44fb-9114-f9b4f4c9a242}, ! Day Schedule Name
  Yes,                                    ! Apply Sunday
  No,                                     ! Apply Monday
  No,                                     ! Apply Tuesday
  No,                                     ! Apply Wednesday
  No,                                     ! Apply Thursday
  No,                                     ! Apply Friday
  No,                                     ! Apply Saturday
  ,                                       ! Apply Holiday
  DateRange,                              ! Date Specification Type
  1,                                      ! Start Month
  1,                                      ! Start Day
  12,                                     ! End Month
  31;                                     ! End Day

OS:Schedule:Day,
  {d8f149d0-bff2-44fb-9114-f9b4f4c9a242}, ! Handle
  Office Infil Quarter On Rule 1 Day Schedule, ! Name
  {0b8b9681-0d63-47f0-8392-15c77ad53137}, ! Schedule Type Limits Name
  ,                                       ! Interpolate to Timestep
  24,                                     ! Hour 1
  0,                                      ! Minute 1
  1;                                      ! Value Until Time 1

OS:Schedule:Rule,
  {c78d67d8-1439-4847-91f5-37d7eedf1ac6}, ! Handle
  Office Infil Quarter On Rule 2,         ! Name
  {53964181-d91a-4d07-859f-e139b73703c9}, ! Schedule Ruleset Name
  1,                                      ! Rule Order
  {80747f2a-9360-4a1c-9957-5decdaada870}, ! Day Schedule Name
  No,                                     ! Apply Sunday
  No,                                     ! Apply Monday
  No,                                     ! Apply Tuesday
  No,                                     ! Apply Wednesday
  No,                                     ! Apply Thursday
  No,                                     ! Apply Friday
  Yes,                                    ! Apply Saturday
  ,                                       ! Apply Holiday
  DateRange,                              ! Date Specification Type
  1,                                      ! Start Month
  1,                                      ! Start Day
  12,                                     ! End Month
  31;                                     ! End Day

OS:Schedule:Day,
  {80747f2a-9360-4a1c-9957-5decdaada870}, ! Handle
  Office Infil Quarter On Rule 2 Day Schedule, ! Name
  {0b8b9681-0d63-47f0-8392-15c77ad53137}, ! Schedule Type Limits Name
  ,                                       ! Interpolate to Timestep
  6,                                      ! Hour 1
  0,                                      ! Minute 1
  1,                                      ! Value Until Time 1
  18,                                     ! Hour 2
  0,                                      ! Minute 2
  0.25,                                   ! Value Until Time 2
  24,                                     ! Hour 3
  0,                                      ! Minute 3
  1;                                      ! Value Until Time 3

OS:ElectricEquipment:Definition,
  {f3b490d5-49da-4a36-bd3e-03ea1fdc31ae}, !- Handle
  189.1-2009 - Office - BreakRoom - CZ1-3 Electric Equipment Definition, !- Name
  Watts/Area,                             !- Design Level Calculation Method
  ,                                       !- Design Level {W}
  43.163280771006,                        !- Watts per Space Floor Area {W/m2}
  ;                                       !- Watts per Person {W/person}

OS:ElectricEquipment,
  {e79dea79-17d1-41b3-a3c9-4567d362f5b9}, !- Handle
  189.1-2009 - Office - BreakRoom - CZ1-3 Electric Equipment, !- Name
  {f3b490d5-49da-4a36-bd3e-03ea1fdc31ae}, !- Electric Equipment Definition Name
  {ca0106be-3477-4838-bae9-3d638f568458}; !- Space or SpaceType Name

OS:Schedule:Ruleset,
  {86138775-0169-44e5-91fb-514328f21e45}, ! Handle
  Office Bldg Equip,                      ! Name
  {0b8b9681-0d63-47f0-8392-15c77ad53137}, ! Schedule Type Limits Name
  {997b21fa-f48a-4864-91fb-eb97fbc1077e}, ! Default Day Schedule Name
  {1f2434d6-c963-4461-97e4-5ae9604b3168}, ! Summer Design Day Schedule Name
  {d755c0c1-62e5-40e3-b9da-0d6f89ce6d5d}; ! Winter Design Day Schedule Name

OS:Schedule:Day,
  {997b21fa-f48a-4864-91fb-eb97fbc1077e}, ! Handle
  Office Bldg Equip Default Schedule,     ! Name
  {0b8b9681-0d63-47f0-8392-15c77ad53137}, ! Schedule Type Limits Name
  ,                                       ! Interpolate to Timestep
  8,                                      !- Hour 1
  0,                                      !- Minute 1
  0.4,                                    !- Value Until Time 1
  12,                                     !- Hour 2
  0,                                      !- Minute 2
  0.9,                                    !- Value Until Time 2
  13,                                     !- Hour 3
  0,                                      !- Minute 3
  0.8,                                    !- Value Until Time 3
  17,                                     !- Hour 4
  0,                                      !- Minute 4
  0.9,                                    !- Value Until Time 4
  18,                                     !- Hour 5
  0,                                      !- Minute 5
  0.8,                                    !- Value Until Time 5
  20,                                     !- Hour 6
  0,                                      !- Minute 6
  0.6,                                    !- Value Until Time 6
  22,                                     !- Hour 7
  0,                                      !- Minute 7
  0.5,                                    !- Value Until Time 7
  24,                                     !- Hour 8
  0,                                      !- Minute 8
  0.4;                                    !- Value Until Time 8

OS:Schedule:Day,
  {1f2434d6-c963-4461-97e4-5ae9604b3168}, ! Handle