
OS:Version,
  {1deb011d-b702-4d71-9fe2-bdd0e9fabeb5}, !- Handle
  1.3.3;                                  !- Version Identifier

OS:Construction,
  {ec241537-6476-4cf9-b84a-7c890bfb0bd2}, !- Handle
  ASHRAE 189.1-2009 AtticFloor ClimateZone 1-8, !- Name
  ,                                       !- Surface Rendering Name
  {6e8e15f9-93c8-4fd1-892b-423aeba2d8f7}, !- Layer 1
  {9470efd4-8c68-4388-8c30-35c7972c64d9}, !- Layer 2
  {6e8e15f9-93c8-4fd1-892b-423aeba2d8f7}; !- Layer 3

OS:StandardsInformation:Construction,
  {ece43a48-800a-4acc-87d2-1e4206df19b5}, !- Handle
  {ec241537-6476-4cf9-b84a-7c890bfb0bd2}, !- Construction Name
  AtticFloor,                             !- Intended Surface Type
  WoodFramed;                             !- Standards Construction Type

OS:Material,
  {6e8e15f9-93c8-4fd1-892b-423aeba2d8f7}, !- Handle
  1/2IN Gypsum,                           !- Name
  Smooth,                                 !- Roughness
  0.0127,                                 !- Thickness {m}
  0.16,                                   !- Conductivity {W/m-K}
  784.9,                                  !- Density {kg/m3}
  830.000000000001,                       !- Specific Heat {J/kg-K}
  0.9,                                    !- Thermal Absorptance
  0.92,                                   !- Solar Absorptance
  0.92;                                   !- Visible Absorptance

OS:Material,
  {9470efd4-8c68-4388-8c30-35c7972c64d9}, !- Handle
  AtticFloor Insulation,                  !- Name
  MediumRough,                            !- Roughness
  0.2379,                                 !- Thickness {m}
  0.049,                                  !- Conductivity {W/m-K}
  265,                                    !- Density {kg/m3}
  836.800000000001,                       !- Specific Heat {J/kg-K}
  0.9,                                    !- Thermal Absorptance
  0.7,                                    !- Solar Absorptance
  0.7;                                    !- Visible Absorptance

OS:Construction,
  {17b25472-aede-4515-af0c-8862efddb213}, !- Handle
  ASHRAE 189.1-2009 ExtRoof IEAD ClimateZone 1, !- Name
  ,                                       !- Surface Rendering Name
  {543ed1c3-c5b2-4fc4-8d5e-41da4905292c}, !- Layer 1
  {abd47e07-269f-4091-a091-ff2dbcd1ef3d}, !- Layer 2
  {a88c56d1-ab14-4514-ba4b-b32ebfc8dc45}; !- Layer 3

OS:StandardsInformation:Construction,
  {e73dff96-32b3-4173-827d-f934145f4658}, !- Handle
  {17b25472-aede-4515-af0c-8862efddb213}, !- Construction Name
  ExteriorRoof,                           !- Intended Surface Type
  IEAD;                                   !- Standards Construction Type

OS:Material,
  {543ed1c3-c5b2-4fc4-8d5e-41da4905292c}, !- Handle
  Roof Membrane,                          !- Name
  VeryRough,                              !- Roughness
  0.0095,                                 !- Thickness {m}
  0.16,                                   !- Conductivity {W/m-K}
  1121.29,                                !- Density {kg/m3}
  1460,                                   !- Specific Heat {J/kg-K}
  0.9,                                    !- Thermal Absorptance
  0.7,                                    !- Solar Absorptance
  0.7;                                    !- Visible Absorptance

OS:Material,
  {abd47e07-269f-4091-a091-ff2dbcd1ef3d}, !- Handle
  Roof Insulation [18],                   !- Name
  MediumRough,                            !- Roughness
  0.1693,                                 !- Thickness {m}
  0.049,                                  !- Conductivity {W/m-K}
  265,                                    !- Density {kg/m3}
  836.800000000001,                       !- Specific Heat {J/kg-K}
  0.9,                                    !- Thermal Absorptance
  0.7,                                    !- Solar Absorptance
  0.7;                                    !- Visible Absorptance

OS:Material,
  {a88c56d1-ab14-4514-ba4b-b32ebfc8dc45}, !- Handle
  Metal Decking,                          !- Name
  MediumSmooth,                           !- Roughness
  0.0015,                                 !- Thickness {m}
  45.006,                                 !- Conductivity {W/m-K}
  7680,                                   !- Density {kg/m3}
  418.4,                                  !- Specific Heat {J/kg-K}
  0.9,                                    !- Thermal Absorptance
  0.7,                                    !- Solar Absorptance
  0.3;                                    !- Visible Absorptance

OS:Construction,
  {cdb755cc-44d2-43dd-bbd0-7161c051f0a1}, !- Handle
  ASHRAE 189.1-2009 ExtRoof IEAD ClimateZone 2-5, !- Name
  ,                                       !- Surface Rendering Name
  {543ed1c3-c5b2-4fc4-8d5e-41da4905292c}, !- Layer 1
  {e61636b4-a90a-4526-b89f-cf887510d6fa}, !- Layer 2
  {a88c56d1-ab14-4514-ba4b-b32ebfc8dc45}; !- Layer 3

OS:StandardsInformation:Construction,
  {f5da50f2-70e2-499d-85cf-74e83c8fcac1}, !- Handle
  {cdb755cc-44d2-43dd-bbd0-7161c051f0a1}, !- Construction Name
  ExteriorRoof,                           !- Intended Surface Type
  IEAD;                                   !- Standards Construction Type

OS:Material,
  {e61636b4-a90a-4526-b89f-cf887510d6fa}, !- Handle
  Roof Insulation [21],                   !- Name
  MediumRough,                            !- Roughness
  0.2105,                                 !- Thickness {m}
  0.049,                                  !- Conductivity {W/m-K}
  265,                                    !- Density {kg/m3}
  836.800000000001,                       !- Specific Heat {J/kg-K}
  0.9,                                    !- Thermal Absorptance
  0.7,                                    !- Solar Absorptance
  0.7;                                    !- Visible Absorptance

OS:Construction,
  {1a0b5175-9ae8-459d-a324-0ea94dc33c10}, !- Handle
  ASHRAE 189.1-2009 ExtRoof IEAD ClimateZone 6, !- Name
  ,                                       !- Surface Rendering Name
  {543ed1c3-c5b2-4fc4-8d5e-41da4905292c}, !- Layer 1
  {beabf8d3-668a-438c-ae10-8ba3186f4c47}, !- Layer 2
  {a88c56d1-ab14-4514-ba4b-b32ebfc8dc45}; !- Layer 3

OS:StandardsInformation:Construction,
  {8569342c-5fa9-4c30-b8d8-59b82c855efa}, !- Handle
  {1a0b5175-9ae8-459d-a324-0ea94dc33c10}, !- Construction Name
  ExteriorRoof,                           !- Intended Surface Type
  IEAD;                                   !- Standards Construction Type

OS:Material,
  {beabf8d3-668a-438c-ae10-8ba3186f4c47}, !- Handle
  Roof Insulation [24],                   !- Name
  MediumRough,                            !- Roughness
  0.260100000000001,                      !- Thickness {m}
  0.049,                                  !- Conductivity {W/m-K}
  265,                                    !- Density {kg/m3}
  836.800000000001,                       !- Specific Heat {J/kg-K}
  0.9,                                    !- Thermal Absorptance
  0.7,                                    !- Solar Absorptance
  0.7;                                    !- Visible Absorptance

OS:Construction,
  {df8677d6-f7f1-43bb-8849-9a1e3e7ef72c}, !- Handle
  ASHRAE 189.1-2009 ExtRoof IEAD ClimateZone 7-8, !- Name
  ,                                       !- Surface Rendering Name
  {543ed1c3-c5b2-4fc4-8d5e-41da4905292c}, !- Layer 1
  {3f28d515-28a7-43a1-a121-f040a6450b1a}, !- Layer 2
  {a88c56d1-ab14-4514-ba4b-b32ebfc8dc45}; !- Layer 3

OS:StandardsInformation:Construction,
  {cc4bf328-5b90-41c9-bf2c-e6bf6af5d196}, !- Handle
  {df8677d6-f7f1-43bb-8849-9a1e3e7ef72c}, !- Construction Name
  ExteriorRoof,                           !- Intended Surface Type
  IEAD;                                   !- Standards Construction Type

OS:Material,
  {3f28d515-28a7-43a1-a121-f040a6450b1a}, !- Handle
  Roof Insulation [26],                   !- Name
  MediumRough,                            !- Roughness
  0.2941,                                 !- Thickness {m}
  0.049,                                  !- Conductivity {W/m-K}
  265,                                    !- Density {kg/m3}
  836.800000000001,                       !- Specific Heat {J/kg-K}
  0.9,                                    !- Thermal Absorptance
  0.7,                                    !- Solar Absorptance
  0.7;                                    !- Visible Absorptance

OS:Construction,
  {9d81fe75-d76a-4b1c-81b0-08d5747bf9fd}, !- Handle
  ASHRAE 189.1-2009 ExtRoof Metal ClimateZone 1, !- Name
  ,                                       !- Surface Rendering Name
  {ccb28175-f535-48c6-9ef7-ad1ca9d9f72f}, !- Layer 1
  {cbcc28c4-4bc5-451c-adc3-da86e94a7225}; !- Layer 2

OS:StandardsInformation:Construction,
  {093a947a-5c79-4be5-8ade-9e6ff9d7e274}, !- Handle
  {9d81fe75-d76a-4b1c-81b0-08d5747bf9fd}, !- Construction Name
  ExteriorRoof,                           !- Intended Surface Type
  Metal;                                  !- Standards Construction Type

OS:Material,
  {ccb28175-f535-48c6-9ef7-ad1ca9d9f72f}, !- Handle
  Metal Roofing,                          !- Name
  MediumSmooth,                           !- Roughness
  0.0015,                                 !- Thickness {m}
  45.006,                                 !- Conductivity {W/m-K}
  7680,                                   !- Density {kg/m3}
  418.4,                                  !- Specific Heat {J/kg-K}
  0.9,                                    !- Thermal Absorptance
  0.3,                                    !- Solar Absorptance
  0.3;                                    !- Visible Absorptance

OS:Material,
  {cbcc28c4-4bc5-451c-adc3-da86e94a7225}, !- Handle
  Roof Insulation [19],                   !- Name
  MediumRough,                            !- Roughness
  0.1868,                                 !- Thickness {m}
  0.049,                                  !- Conductivity {W/m-K}
  265,                                    !- Density {kg/m3}
  836.800000000001,                       !- Specific Heat {J/kg-K}
  0.9,                                    !- Thermal Absorptance
  0.7,                                    !- Solar Absorptance
  0.7;                                    !- Visible Absorptance

OS:Construction,
  {77b692f7-76ea-4898-8883-8f7be025cc6d}, !- Handle
  ASHRAE 189.1-2009 ExtRoof Metal ClimateZone 2-5, !- Name
  ,                                       !- Surface Rendering Name
  {ccb28175-f535-48c6-9ef7-ad1ca9d9f72f}, !- Layer 1
  {da61325b-a7e6-497c-9c8b-141aa3fc8f02}; !- Layer 2

OS:StandardsInformation:Construction,
  {3b1b107f-7609-465c-a45d-12628de7edbf}, !- Handle
  {77b692f7-76ea-4898-8883-8f7be025cc6d}, !- Construction Name
  ExteriorRoof,                           !- Intended Surface Type
  Metal;                                  !- Standards Construction Type

OS:Material,
  {da61325b-a7e6-497c-9c8b-141aa3fc8f02}, !- Handle
  Roof Insulation [22],                   !- Name
  MediumRough,                            !- Roughness
  0.2358,                                 !- Thickness {m}
  0.049,                                  !- Conductivity {W/m-K}
  265,                                    !- Density {kg/m3}
  836.800000000001,                       !- Specific Heat {J/kg-K}
  0.9,                                    !- Thermal Absorptance
  0.7,                                    !- Solar Absorptance
  0.7;                                    !- Visible Absorptance

OS:Construction,
  {7e3351b5-e33f-4af7-92a9-e98ffdc9840c}, !- Handle
  ASHRAE 189.1-2009 ExtRoof Metal ClimateZone 6, !- Name
  ,                                       !- Surface Rendering Name
  {ccb28175-f535-48c6-9ef7-ad1ca9d9f72f}, !- Layer 1
  {f5b6f173-efa0-4c94-8091-f4091504f999}; !- Layer 2

OS:StandardsInformation:Construction,
  {58c6f75a-ff2a-402b-a6d2-bb833c6719d0}, !- Handle
  {7e3351b5-e33f-4af7-92a9-e98ffdc9840c}, !- Construction Name
  ExteriorRoof,                           !- Intended Surface Type
  Metal;                                  !- Standards Construction Type

OS:Material,
  {f5b6f173-efa0-4c94-8091-f4091504f999}, !- Handle
  Roof Insulation [25],                   !- Name
  MediumRough,                            !- Roughness
  0.263,                                  !- Thickness {m}
  0.049,                                  !- Conductivity {W/m-K}
  265,                                    !- Density {kg/m3}
  836.800000000001,                       !- Specific Heat {J/kg-K}
  0.9,                                    !- Thermal Absorptance
  0.7,                                    !- Solar Absorptance
  0.7;                                    !- Visible Absorptance

OS:Construction,
  {f6b8ad36-5c4a-4513-9e2d-d825bdefa8cc}, !- Handle
  ASHRAE 189.1-2009 ExtRoof Metal ClimateZone 7-8, !- Name
  ,                                       !- Surface Rendering Name
  {ccb28175-f535-48c6-9ef7-ad1ca9d9f72f}, !- Layer 1
  {7e2defb7-5aef-432b-acd0-21c333eef3a9}; !- Layer 2

OS:StandardsInformation:Construction,
  {b085158e-1958-4ee9-a1f4-f8390cee4205}, !- Handle
  {f6b8ad36-5c4a-4513-9e2d-d825bdefa8cc}, !- Construction Name
  ExteriorRoof,                           !- Intended Surface Type
  Metal;                                  !- Standards Construction Type

OS:Material,
  {7e2defb7-5aef-432b-acd0-21c333eef3a9}, !- Handle
  Roof Insulation [27],                   !- Name
  MediumRough,                            !- Roughness
  0.297000000000001,                      !- Thickness {m}
  0.049,                                  !- Conductivity {W/m-K}
  265,                                    !- Density {kg/m3}
  836.800000000001,                       !- Specific Heat {J/kg-K}
  0.9,                                    !- Thermal Absorptance
  0.7,                                    !- Solar Absorptance
  0.7;                                    !- Visible Absorptance

OS:Construction,
  {268bf24d-3079-4cb0-9a7b-f29fdc379058}, !- Handle
  ASHRAE 189.1-2009 ExtWall Mass ClimateZone 1, !- Name
  ,                                       !- Surface Rendering Name
  {2c18ff05-9249-4e55-ae29-c2f69cb36eb5}, !- Layer 1
  {91cbf490-5431-42a8-80a8-a89de7cbecff}, !- Layer 2
  {73bfe274-0005-4467-ad0a-11f5558bdb96}, !- Layer 3
  {6e8e15f9-93c8-4fd1-892b-423aeba2d8f7}; !- Layer 4

OS:StandardsInformation:Construction,
  {0ba7da5b-0b59-483e-9de1-8a4c4672bb37}, !- Handle
  {268bf24d-3079-4cb0-9a7b-f29fdc379058}, !- Construction Name
  ExteriorWall,                           !- Intended Surface Type
  Mass;                                   !- Standards Construction Type

OS:Material,
  {2c18ff05-9249-4e55-ae29-c2f69cb36eb5}, !- Handle
  1IN Stucco,                             !- Name
  Smooth,                                 !- Roughness
  0.0253,                                 !- Thickness {m}
  0.691799999999999,                      !- Conductivity {W/m-K}
  1858,                                   !- Density {kg/m3}
  836.999999999999,                       !- Specific Heat {J/kg-K}
  0.9,                                    !- Thermal Absorptance
  0.92,                                   !- Solar Absorptance
  0.92;                                   !- Visible Absorptance

OS:Material,
  {91cbf490-5431-42a8-80a8-a89de7cbecff}, !- Handle
  8IN Concrete HW,                        !- Name
  MediumRough,                            !- Roughness
  0.2033,                                 !- Thickness {m}
  1.72959999999999,                       !- Conductivity {W/m-K}
  2242.99999999999,                       !- Density {kg/m3}
  836.999999999999,                       !- Specific Heat {J/kg-K}
  0.9,                                    !- Thermal Absorptance
  0.65,                                   !- Solar Absorptance
  0.65;                                   !- Visible Absorptance

OS:Material,
  {73bfe274-0005-4467-ad0a-11f5558bdb96}, !- Handle
  Wall Insulation [31],                   !- Name
  MediumRough,                            !- Roughness
  0.0337000000000001,                     !- Thickness {m}
  0.0432,                                 !- Conductivity {W/m-K}
  91,                                     !- Density {kg/m3}
  836.999999999999,                       !- Specific Heat {J/kg-K}
  0.9,                                    !- Thermal Absorptance
  0.5,                                    !- Solar Absorptance
  0.5;                                    !- Visible Absorptance

OS:Construction,
  {e5c55d87-5422-4715-96ff-120681483022}, !- Handle
  ASHRAE 189.1-2009 ExtWall Mass ClimateZone 2, !- Name
  ,                                       !- Surface Rendering Name
  {2c18ff05-9249-4e55-ae29-c2f69cb36eb5}, !- Layer 1
  {91cbf490-5431-42a8-80a8-a89de7cbecff}, !- Layer 2
  {4572b692-d08c-4d3f-b53d-12e100d6f3ac}, !- Layer 3
  {6e8e15f9-93c8-4fd1-892b-423aeba2d8f7}; !- Layer 4

OS:StandardsInformation:Construction,
  {fe19e9d9-dc0f-4165-97fc-199ce20cf10b}, !- Handle
  {e5c55d87-5422-4715-96ff-120681483022}, !- Construction Name
  ExteriorWall,                           !- Intended Surface Type
  Mass;                                   !- Standards Construction Type

OS:Material,
  {4572b692-d08c-4d3f-b53d-12e100d6f3ac}, !- Handle
  Wall Insulation [35],                   !- Name
  MediumRough,                            !- Roughness
  0.0452,                                 !- Thickness {m}
  0.0432,                                 !- Conductivity {W/m-K}
  91,                                     !- Density {kg/m3}
  836.999999999999,                       !- Specific Heat {J/kg-K}
  0.9,                                    !- Thermal Absorptance
  0.5,                                    !- Solar Absorptance
  0.5;                                    !- Visible Absorptance

OS:Construction,
  {133e12c5-b01d-4cdc-8b17-a8b7c3f030aa}, !- Handle
  ASHRAE 189.1-2009 ExtWall Mass ClimateZone 3, !- Name
  ,                                       !- Surface Rendering Name
  {2c18ff05-9249-4e55-ae29-c2f69cb36eb5}, !- Layer 1
  {91cbf490-5431-42a8-80a8-a89de7cbecff}, !- Layer 2
  {c3e6753d-2004-4f35-9e6d-1beec9dcf083}, !- Layer 3
  {6e8e15f9-93c8-4fd1-892b-423aeba2d8f7}; !- Layer 4

OS:StandardsInformation:Construction,
  {6ecaf5a1-5454-4b9b-afc6-fcf513a8488c}, !- Handle
  {133e12c5-b01d-4cdc-8b17-a8b7c3f030aa}, !- Construction Name
  ExteriorWall,                           !- Intended Surface Type
  Mass;                                   !- Standards Construction Type

OS:Material,
  {c3e6753d-2004-4f35-9e6d-1beec9dcf083}, !- Handle
  Wall Insulation [36],                   !- Name
  MediumRough,                            !- Roughness
  0.0565999999999999,                     !- Thickness {m}
  0.0432,                                 !- Conductivity {W/m-K}
  91,                                     !- Density {kg/m3}
  836.999999999999,                       !- Specific Heat {J/kg-K}
  0.9,                                    !- Thermal Absorptance
  0.5,                                    !- Solar Absorptance
  0.5;                                    !- Visible Absorptance

OS:Construction,
  {ee89946c-4808-450b-97f6-3fbedc191525}, !- Handle
  ASHRAE 189.1-2009 ExtWall Mass ClimateZone 4, !- Name
  ,                                       !- Surface Rendering Name
  {2c18ff05-9249-4e55-ae29-c2f69cb36eb5}, !- Layer 1
  {91cbf490-5431-42a8-80a8-a89de7cbecff}, !- Layer 2
  {1b13b9cb-6aa9-41ee-a7db-052a84fbc32f}, !- Layer 3
  {6e8e15f9-93c8-4fd1-892b-423aeba2d8f7}; !- Layer 4

OS:StandardsInformation:Construction,
  {e613c65e-a4c2-4a3d-8485-05c01101da12}, !- Handle
  {ee89946c-4808-450b-97f6-3fbedc191525}, !- Construction Name
  ExteriorWall,                           !- Intended Surface Type
  Mass;                                   !- Standards Construction Type

OS:Material,
  {1b13b9cb-6aa9-41ee-a7db-052a84fbc32f}, !- Handle
  Wall Insulation [37],                   !- Name
  MediumRough,                            !- Roughness
  0.0680999999999999,                     !- Thickness {m}
  0.0432,                                 !- Conductivity {W/m-K}
  91,                                     !- Density {kg/m3}
  836.999999999999,                       !- Specific Heat {J/kg-K}
  0.9,                                    !- Thermal Absorptance
  0.5,                                    !- Solar Absorptance
  0.5;                                    !- Visible Absorptance

OS:Construction,
  {a9b2a1aa-c286-42cf-9804-bde12bb10204}, !- Handle
  ASHRAE 189.1-2009 ExtWall Mass ClimateZone 5, !- Name
  ,                                       !- Surface Rendering Name
  {2c18ff05-9249-4e55-ae29-c2f69cb36eb5}, !- Layer 1
  {91cbf490-5431-42a8-80a8-a89de7cbecff}, !- Layer 2
  {251e6961-9f2d-4ada-94e0-10cf59d98db5}, !- Layer 3
  {6e8e15f9-93c8-4fd1-892b-423aeba2d8f7}; !- Layer 4

OS:StandardsInformation:Construction,
  {85973e22-a5e7-4789-89ef-04bd5d3a0660}, !- Handle
  {a9b2a1aa-c286-42cf-9804-bde12bb10204}, !- Construction Name
  ExteriorWall,                           !- Intended Surface Type
  Mass;                                   !- Standards Construction Type

OS:Material,
  {251e6961-9f2d-4ada-94e0-10cf59d98db5}, !- Handle
  Wall Insulation [40],                   !- Name
  MediumRough,                            !- Roughness
  0.0793999999999999,                     !- Thickness {m}
  0.0432,                                 !- Conductivity {W/m-K}
  91,                                     !- Density {kg/m3}
  836.999999999999,                       !- Specific Heat {J/kg-K}
  0.9,                                    !- Thermal Absorptance
  0.5,                                    !- Solar Absorptance
  0.5;                                    !- Visible Absorptance

OS:Construction,
  {77e50c27-55a8-4d65-8994-d7c79ddff121}, !- Handle
  ASHRAE 189.1-2009 ExtWall Mass ClimateZone 6, !- Name
  ,                                       !- Surface Rendering Name
  {2c18ff05-9249-4e55-ae29-c2f69cb36eb5}, !- Layer 1
  {91cbf490-5431-42a8-80a8-a89de7cbecff}, !- Layer 2
  {de817a8d-e62b-4cf7-b3cc-114df9be5cc5}, !- Layer 3
  {6e8e15f9-93c8-4fd1-892b-423aeba2d8f7}; !- Layer 4

OS:StandardsInformation:Construction,
  {2cf8d783-ff2a-4c5b-9653-b96f159ee4f0}, !- Handle
  {77e50c27-55a8-4d65-8994-d7c79ddff121}, !- Construction Name
  ExteriorWall,                           !- Intended Surface Type
  Mass;                                   !- Standards Construction Type

OS:Material,
  {de817a8d-e62b-4cf7-b3cc-114df9be5cc5}, !- Handle
  Wall Insulation [42],                   !- Name
  MediumRough,                            !- Roughness
  0.0913999999999999,                     !- Thickness {m}
  0.0432,                                 !- Conductivity {W/m-K}
  91,                                     !- Density {kg/m3}
  836.999999999999,                       !- Specific Heat {J/kg-K}
  0.9,                                    !- Thermal Absorptance
  0.5,                                    !- Solar Absorptance
  0.5;                                    !- Visible Absorptance

OS:Construction,
  {b01801e6-9152-4969-b663-b06ce01cf408}, !- Handle
  ASHRAE 189.1-2009 ExtWall Mass ClimateZone 7-8, !- Name
  ,                                       !- Surface Rendering Name
  {2c18ff05-9249-4e55-ae29-c2f69cb36eb5}, !- Layer 1
  {91cbf490-5431-42a8-80a8-a89de7cbecff}, !- Layer 2
  {89866e41-ec60-479b-b968-7c01bdb50614}, !- Layer 3
  {6e8e15f9-93c8-4fd1-892b-423aeba2d8f7}; !- Layer 4

OS:StandardsInformation:Construction,
  {5e8f004e-fceb-4d9e-bb04-5aa037125bcc}, !- Handle
  {b01801e6-9152-4969-b663-b06ce01cf408}, !- Construction Name
  ExteriorWall,                           !- Intended Surface Type
  Mass;                                   !- Standards Construction Type

OS:Material,
  {89866e41-ec60-479b-b968-7c01bdb50614}, !- Handle
  Wall Insulation [44],                   !- Name
  MediumRough,                            !- Roughness
  0.1104,                                 !- Thickness {m}
  0.0432,                                 !- Conductivity {W/m-K}
  91,                                     !- Density {kg/m3}
  836.999999999999,                       !- Specific Heat {J/kg-K}
  0.9,                                    !- Thermal Absorptance
  0.5,                                    !- Solar Absorptance
  0.5;                                    !- Visible Absorptance

OS:Construction,
  {0b35acac-56a2-4953-a342-45b272294aa5}, !- Handle
  ASHRAE 189.1-2009 ExtWall Mass ClimateZone alt-res 1, !- Name
  ,                                       !- Surface Rendering Name
  {2c18ff05-9249-4e55-ae29-c2f69cb36eb5}, !- Layer 1
  {91cbf490-5431-42a8-80a8-a89de7cbecff}, !- Layer 2
  {4572b692-d08c-4d3f-b53d-12e100d6f3ac}, !- Layer 3
  {6e8e15f9-93c8-4fd1-892b-423aeba2d8f7}; !- Layer 4

OS:StandardsInformation:Construction,
  {48948a13-ac60-4e76-810a-177bc0abbf85}, !- Handle
  {0b35acac-56a2-4953-a342-45b272294aa5}, !- Construction Name
  ExteriorWall,                           !- Intended Surface Type
  Mass;                                   !- Standards Construction Type

OS:Construction,
  {bd5dcb98-86a5-4a77-8a8d-b967052c09b4}, !- Handle
  ASHRAE 189.1-2009 ExtWall Mass ClimateZone alt-res 2, !- Name
  ,                                       !- Surface Rendering Name
  {2c18ff05-9249-4e55-ae29-c2f69cb36eb5}, !- Layer 1
  {91cbf490-5431-42a8-80a8-a89de7cbecff}, !- Layer 2
  {c3e6753d-2004-4f35-9e6d-1beec9dcf083}, !- Layer 3
  {6e8e15f9-93c8-4fd1-892b-423aeba2d8f7}; !- Layer 4

OS:StandardsInformation:Construction,
  {89e14d8b-0f4c-4c5b-88cf-100931cd2944}, !- Handle
  {bd5dcb98-86a5-4a77-8a8d-b967052c09b4}, !- Construction Name
  ExteriorWall,                           !- Intended Surface Type
  Mass;                                   !- Standards Construction Type

OS:Construction,
  {73a1cc45-97fd-458d-a6fc-1169f5c7910d}, !- Handle
  ASHRAE 189.1-2009 ExtWall Mass ClimateZone alt-res 3, !- Name
  ,                                       !- Surface Rendering Name
  {2c18ff05-9249-4e55-ae29-c2f69cb36eb5}, !- Layer 1
  {91cbf490-5431-42a8-80a8-a89de7cbecff}, !- Layer 2
  {1b13b9cb-6aa9-41ee-a7db-052a84fbc32f}, !- Layer 3
  {6e8e15f9-93c8-4fd1-892b-423aeba2d8f7}; !- Layer 4

OS:StandardsInformation:Construction,
  {7f853b42-975d-48db-ab4e-e15140bc5fca}, !- Handle
  {73a1cc45-97fd-458d-a6fc-1169f5c7910d}, !- Construction Name
  ExteriorWall,                           !- Intended Surface Type
  Mass;                                   !- Standards Construction Type

OS:Construction,
  {aa844c4d-09b3-45e5-be34-d761f017ae17}, !- Handle
  ASHRAE 189.1-2009 ExtWall Mass ClimateZone alt-res 4, !- Name
  ,                                       !- Surface Rendering Name
  {2c18ff05-9249-4e55-ae29-c2f69cb36eb5}, !- Layer 1
  {91cbf490-5431-42a8-80a8-a89de7cbecff}, !- Layer 2
  {251e6961-9f2d-4ada-94e0-10cf59d98db5}, !- Layer 3
  {6e8e15f9-93c8-4fd1-892b-423aeba2d8f7}; !- Layer 4

OS:StandardsInformation:Construction,
  {da85f6e0-6bb3-4200-a8a1-29632999e5f6}, !- Handle
  {aa844c4d-09b3-45e5-be34-d761f017ae17}, !- Construction Name
  ExteriorWall,                           !- Intended Surface Type
  Mass;                                   !- Standards Construction Type

OS:Construction,
  {dd667e82-144d-4fee-a140-e134f9eb195a}, !- Handle
  ASHRAE 189.1-2009 ExtWall Mass ClimateZone alt-res 5, !- Name
  ,                                       !- Surface Rendering Name
  {2c18ff05-9249-4e55-ae29-c2f69cb36eb5}, !- Layer 1
  {91cbf490-5431-42a8-80a8-a89de7cbecff}, !- Layer 2
  {de817a8d-e62b-4cf7-b3cc-114df9be5cc5}, !- Layer 3
  {6e8e15f9-93c8-4fd1-892b-423aeba2d8f7}; !- Layer 4

OS:StandardsInformation:Construction,
  {fe619970-e857-4162-9598-feb6d3e160e7}, !- Handle
  {dd667e82-144d-4fee-a140-e134f9eb195a}, !- Construction Name
  ExteriorWall,                           !- Intended Surface Type
  Mass;                                   !- Standards Construction Type

OS:Construction,
  {7daeb618-afc3-41be-83a0-aa4a72c25978}, !- Handle
  ASHRAE 189.1-2009 ExtWall Mass ClimateZone alt-res 6, !- Name
  ,                                       !- Surface Rendering Name
  {2c18ff05-9249-4e55-ae29-c2f69cb36eb5}, !- Layer 1
  {91cbf490-5431-42a8-80a8-a89de7cbecff}, !- Layer 2
  {89866e41-ec60-479b-b968-7c01bdb50614}, !- Layer 3
  {6e8e15f9-93c8-4fd1-892b-423aeba2d8f7}; !- Layer 4

OS:StandardsInformation:Construction,
  {47643f6c-f7ed-45bd-85a2-330313e3632d}, !- Handle
  {7daeb618-afc3-41be-83a0-aa4a72c25978}, !- Construction Name
  ExteriorWall,                           !- Intended Surface Type
  Mass;                                   !- Standards Construction Type

OS:Construction,
  {8f3fa1ca-0aae-431a-bd53-472500774e8d}, !- Handle
  ASHRAE 189.1-2009 ExtWall Mass ClimateZone alt-res 7, !- Name
  ,                                       !- Surface Rendering Name
  {2c18ff05-9249-4e55-ae29-c2f69cb36eb5}, !- Layer 1
  {91cbf490-5431-42a8-80a8-a89de7cbecff}, !- Layer 2
  {89866e41-ec60-479b-b968-7c01bdb50614}, !- Layer 3
  {6e8e15f9-93c8-4fd1-892b-423aeba2d8f7}; !- Layer 4

OS:StandardsInformation:Construction,
  {fc5868a5-6a07-434c-8405-4385f0808333}, !- Handle
  {8f3fa1ca-0aae-431a-bd53-472500774e8d}, !- Construction Name
  ExteriorWall,                           !- Intended Surface Type
  Mass;                                   !- Standards Construction Type

OS:Construction,
  {832b7abd-6aa4-4faf-a617-c77aa982d6b8}, !- Handle
  ASHRAE 189.1-2009 ExtWall Mass ClimateZone alt-res 8, !- Name
  ,                                       !- Surface Rendering Name
  {2c18ff05-9249-4e55-ae29-c2f69cb36eb5}, !- Layer 1
  {91cbf490-5431-42a8-80a8-a89de7cbecff}, !- Layer 2
  {dcdeab57-fa38-4c7f-993c-c6abea87b288}, !- Layer 3
  {6e8e15f9-93c8-4fd1-892b-423aeba2d8f7}; !- Layer 4

OS:StandardsInformation:Construction,
  {94263850-f4b8-41e6-81cf-aa70a3a49186}, !- Handle
  {832b7abd-6aa4-4faf-a617-c77aa982d6b8}, !- Construction Name
  ExteriorWall,                           !- Intended Surface Type
  Mass;                                   !- Standards Construction Type

OS:Material,
  {dcdeab57-fa38-4c7f-993c-c6abea87b288}, !- Handle