
OS:Version,
  {5ee5736c-6888-47bd-83c1-7ac134ea6b66}, !- Handle
  1.2.3;                                  !- Version Identifier

OS:Construction,
  {6ef69e4d-d8ac-48f3-bce7-b998ecd56290}, !- Handle
  ASHRAE 189.1-2009 AtticFloor ClimateZone 1-8, !- Name
  ,                                       !- Surface Rendering Name
  {686782c6-a5de-4a97-9a1e-b4e7494b339f}, !- Layer 1
  {709cbfb9-92a9-476f-a8a8-c82d58ad812d}, !- Layer 2
  {686782c6-a5de-4a97-9a1e-b4e7494b339f}; !- Layer 3

OS:StandardsInformation:Construction,
  {93f15734-746a-44d7-8c16-2f9facaa92c4}, !- Handle
  {6ef69e4d-d8ac-48f3-bce7-b998ecd56290}, !- Construction Name
  AtticFloor,                             !- Intended Surface Type
  ASHRAE 189.1-2009;                      !- Standards Construction Type

OS:Material,
  {686782c6-a5de-4a97-9a1e-b4e7494b339f}, !- Handle
  1/2IN Gypsum,                           !- Name
  Smooth,                                 !- Roughness
  0.0127,                                 !- Thickness {m}
  0.16,                                   !- Conductivity {W/m-K}
  784.9,                                  !- Density {kg/m3}
  830.000000000001,                       !- Specific Heat {J/kg-K}
  0.9,                                    !- Thermal Absorptance
  0.92,                                   !- Solar Absorptance
  0.92;                                   !- Visible Absorptance

OS:Material,
  {709cbfb9-92a9-476f-a8a8-c82d58ad812d}, !- Handle
  AtticFloor Insulation,                  !- Name
  MediumRough,                            !- Roughness
  0.2379,                                 !- Thickness {m}
  0.049,                                  !- Conductivity {W/m-K}
  265,                                    !- Density {kg/m3}
  836.800000000001,                       !- Specific Heat {J/kg-K}
  0.9,                                    !- Thermal Absorptance
  0.7,                                    !- Solar Absorptance
  0.7;                                    !- Visible Absorptance

OS:Construction,
  {0bd7fc6c-0e73-4ef9-9bc5-4d53001a6bca}, !- Handle
  ASHRAE 189.1-2009 ExtRoof IEAD ClimateZone 1, !- Name
  ,                                       !- Surface Rendering Name
  {98938a7e-a29b-4901-a1ca-57269e4cd410}, !- Layer 1
  {14004562-d55f-482f-8b1e-94dbd500bbe0}, !- Layer 2
  {47786b55-1656-44a5-84a2-20cb0aafadeb}; !- Layer 3

OS:StandardsInformation:Construction,
  {e453c917-7bbf-48fc-b788-c870c6d4ee19}, !- Handle
  {0bd7fc6c-0e73-4ef9-9bc5-4d53001a6bca}, !- Construction Name
  ExteriorRoof,                           !- Intended Surface Type
  ASHRAE 189.1-2009;                      !- Standards Construction Type

OS:Material,
  {98938a7e-a29b-4901-a1ca-57269e4cd410}, !- Handle
  Roof Membrane,                          !- Name
  VeryRough,                              !- Roughness
  0.0095,                                 !- Thickness {m}
  0.16,                                   !- Conductivity {W/m-K}
  1121.29,                                !- Density {kg/m3}
  1460,                                   !- Specific Heat {J/kg-K}
  0.9,                                    !- Thermal Absorptance
  0.7,                                    !- Solar Absorptance
  0.7;                                    !- Visible Absorptance

OS:Material,
  {14004562-d55f-482f-8b1e-94dbd500bbe0}, !- Handle
  Roof Insulation [18],                   !- Name
  MediumRough,                            !- Roughness
  0.1693,                                 !- Thickness {m}
  0.049,                                  !- Conductivity {W/m-K}
  265,                                    !- Density {kg/m3}
  836.800000000001,                       !- Specific Heat {J/kg-K}
  0.9,                                    !- Thermal Absorptance
  0.7,                                    !- Solar Absorptance
  0.7;                                    !- Visible Absorptance

OS:Material,
  {47786b55-1656-44a5-84a2-20cb0aafadeb}, !- Handle
  Metal Decking,                          !- Name
  MediumSmooth,                           !- Roughness
  0.0015,                                 !- Thickness {m}
  45.006,                                 !- Conductivity {W/m-K}
  7680,                                   !- Density {kg/m3}
  418.4,                                  !- Specific Heat {J/kg-K}
  0.9,                                    !- Thermal Absorptance
  0.7,                                    !- Solar Absorptance
  0.3;                                    !- Visible Absorptance

OS:Construction,
  {c5a7aba7-eeab-4019-8540-4006f291f9c5}, !- Handle
  ASHRAE 189.1-2009 ExtRoof IEAD ClimateZone 2-5, !- Name
  ,                                       !- Surface Rendering Name
  {98938a7e-a29b-4901-a1ca-57269e4cd410}, !- Layer 1
  {0e3e89a0-c9fc-4af2-8382-c325a230c799}, !- Layer 2
  {47786b55-1656-44a5-84a2-20cb0aafadeb}; !- Layer 3

OS:StandardsInformation:Construction,
  {89dc2574-e514-47b1-96d1-ede0e34e0d6d}, !- Handle
  {c5a7aba7-eeab-4019-8540-4006f291f9c5}, !- Construction Name
  ExteriorRoof,                           !- Intended Surface Type
  ASHRAE 189.1-2009;                      !- Standards Construction Type

OS:Material,
  {0e3e89a0-c9fc-4af2-8382-c325a230c799}, !- Handle
  Roof Insulation [21],                   !- Name
  MediumRough,                            !- Roughness
  0.2105,                                 !- Thickness {m}
  0.049,                                  !- Conductivity {W/m-K}
  265,                                    !- Density {kg/m3}
  836.800000000001,                       !- Specific Heat {J/kg-K}
  0.9,                                    !- Thermal Absorptance
  0.7,                                    !- Solar Absorptance
  0.7;                                    !- Visible Absorptance

OS:Construction,
  {6c844df5-e6ad-4cef-ae1d-567c04aa2abb}, !- Handle
  ASHRAE 189.1-2009 ExtRoof IEAD ClimateZone 6, !- Name
  ,                                       !- Surface Rendering Name
  {98938a7e-a29b-4901-a1ca-57269e4cd410}, !- Layer 1
  {b94d5a56-0b90-4b10-b008-936806c149d6}, !- Layer 2
  {47786b55-1656-44a5-84a2-20cb0aafadeb}; !- Layer 3

OS:StandardsInformation:Construction,
  {06d137b7-fba0-46f0-bde0-1368ba308c93}, !- Handle
  {6c844df5-e6ad-4cef-ae1d-567c04aa2abb}, !- Construction Name
  ExteriorRoof,                           !- Intended Surface Type
  ASHRAE 189.1-2009;                      !- Standards Construction Type

OS:Material,
  {b94d5a56-0b90-4b10-b008-936806c149d6}, !- Handle
  Roof Insulation [24],                   !- Name
  MediumRough,                            !- Roughness
  0.260100000000001,                      !- Thickness {m}
  0.049,                                  !- Conductivity {W/m-K}
  265,                                    !- Density {kg/m3}
  836.800000000001,                       !- Specific Heat {J/kg-K}
  0.9,                                    !- Thermal Absorptance
  0.7,                                    !- Solar Absorptance
  0.7;                                    !- Visible Absorptance

OS:Construction,
  {1108b6d6-70ee-4dd2-86e0-132f75bc5c63}, !- Handle
  ASHRAE 189.1-2009 ExtRoof IEAD ClimateZone 7-8, !- Name
  ,                                       !- Surface Rendering Name
  {98938a7e-a29b-4901-a1ca-57269e4cd410}, !- Layer 1
  {af8291f6-f26d-45f5-b0ba-8d0af8b4da37}, !- Layer 2
  {47786b55-1656-44a5-84a2-20cb0aafadeb}; !- Layer 3

OS:StandardsInformation:Construction,
  {f8dabb77-3245-4051-95c1-8df033bbac45}, !- Handle
  {1108b6d6-70ee-4dd2-86e0-132f75bc5c63}, !- Construction Name
  ExteriorRoof,                           !- Intended Surface Type
  ASHRAE 189.1-2009;                      !- Standards Construction Type

OS:Material,
  {af8291f6-f26d-45f5-b0ba-8d0af8b4da37}, !- Handle
  Roof Insulation [26],                   !- Name
  MediumRough,                            !- Roughness
  0.2941,                                 !- Thickness {m}
  0.049,                                  !- Conductivity {W/m-K}
  265,                                    !- Density {kg/m3}
  836.800000000001,                       !- Specific Heat {J/kg-K}
  0.9,                                    !- Thermal Absorptance
  0.7,                                    !- Solar Absorptance
  0.7;                                    !- Visible Absorptance

OS:Construction,
  {bddd3d86-770b-4dfb-91d4-fd9b8b537b42}, !- Handle
  ASHRAE 189.1-2009 ExtRoof Metal ClimateZone 1, !- Name
  ,                                       !- Surface Rendering Name
  {63283f58-52c6-46cd-b0c1-898d43382c4d}, !- Layer 1
  {f4bfda83-2634-4eef-9313-f2a654fd6919}; !- Layer 2

OS:StandardsInformation:Construction,
  {0054dd2e-c12a-4ea7-adc4-6399480170a6}, !- Handle
  {bddd3d86-770b-4dfb-91d4-fd9b8b537b42}, !- Construction Name
  ExteriorRoof,                           !- Intended Surface Type
  ASHRAE 189.1-2009;                      !- Standards Construction Type

OS:Material,
  {63283f58-52c6-46cd-b0c1-898d43382c4d}, !- Handle
  Metal Roofing,                          !- Name
  MediumSmooth,                           !- Roughness
  0.0015,                                 !- Thickness {m}
  45.006,                                 !- Conductivity {W/m-K}
  7680,                                   !- Density {kg/m3}
  418.4,                                  !- Specific Heat {J/kg-K}
  0.9,                                    !- Thermal Absorptance
  0.3,                                    !- Solar Absorptance
  0.3;                                    !- Visible Absorptance

OS:Material,
  {f4bfda83-2634-4eef-9313-f2a654fd6919}, !- Handle
  Roof Insulation [19],                   !- Name
  MediumRough,                            !- Roughness
  0.1868,                                 !- Thickness {m}
  0.049,                                  !- Conductivity {W/m-K}
  265,                                    !- Density {kg/m3}
  836.800000000001,                       !- Specific Heat {J/kg-K}
  0.9,                                    !- Thermal Absorptance
  0.7,                                    !- Solar Absorptance
  0.7;                                    !- Visible Absorptance

OS:Construction,
  {912b8b25-aad7-4af8-83b3-5c1d7e9f4451}, !- Handle
  ASHRAE 189.1-2009 ExtRoof Metal ClimateZone 2-5, !- Name
  ,                                       !- Surface Rendering Name
  {63283f58-52c6-46cd-b0c1-898d43382c4d}, !- Layer 1
  {4ef29ae7-31c8-4ed6-8808-d743f2d67374}; !- Layer 2

OS:StandardsInformation:Construction,
  {89d5bc71-c789-4c00-859b-9ebdaf8135bf}, !- Handle
  {912b8b25-aad7-4af8-83b3-5c1d7e9f4451}, !- Construction Name
  ExteriorRoof,                           !- Intended Surface Type
  ASHRAE 189.1-2009;                      !- Standards Construction Type

OS:Material,
  {4ef29ae7-31c8-4ed6-8808-d743f2d67374}, !- Handle
  Roof Insulation [22],                   !- Name
  MediumRough,                            !- Roughness
  0.2358,                                 !- Thickness {m}
  0.049,                                  !- Conductivity {W/m-K}
  265,                                    !- Density {kg/m3}
  836.800000000001,                       !- Specific Heat {J/kg-K}
  0.9,                                    !- Thermal Absorptance
  0.7,                                    !- Solar Absorptance
  0.7;                                    !- Visible Absorptance

OS:Construction,
  {33100ada-68a5-47db-9235-f8d79e855817}, !- Handle
  ASHRAE 189.1-2009 ExtRoof Metal ClimateZone 6, !- Name
  ,                                       !- Surface Rendering Name
  {63283f58-52c6-46cd-b0c1-898d43382c4d}, !- Layer 1
  {f16624ac-0da9-4c61-a3c9-08e876097ff5}; !- Layer 2

OS:StandardsInformation:Construction,
  {d3cd90d4-215e-49de-88bb-011819ac9d89}, !- Handle
  {33100ada-68a5-47db-9235-f8d79e855817}, !- Construction Name
  ExteriorRoof,                           !- Intended Surface Type
  ASHRAE 189.1-2009;                      !- Standards Construction Type

OS:Material,
  {f16624ac-0da9-4c61-a3c9-08e876097ff5}, !- Handle
  Roof Insulation [25],                   !- Name
  MediumRough,                            !- Roughness
  0.263,                                  !- Thickness {m}
  0.049,                                  !- Conductivity {W/m-K}
  265,                                    !- Density {kg/m3}
  836.800000000001,                       !- Specific Heat {J/kg-K}
  0.9,                                    !- Thermal Absorptance
  0.7,                                    !- Solar Absorptance
  0.7;                                    !- Visible Absorptance

OS:Construction,
  {3ca561dd-ccaa-4e67-97d5-b181b72cddd6}, !- Handle
  ASHRAE 189.1-2009 ExtRoof Metal ClimateZone 7-8, !- Name
  ,                                       !- Surface Rendering Name
  {63283f58-52c6-46cd-b0c1-898d43382c4d}, !- Layer 1
  {cec7ac89-52c4-4f30-8c95-4760584ad53e}; !- Layer 2

OS:StandardsInformation:Construction,
  {9ef155ea-5099-491e-a5d6-a9a0c0c95680}, !- Handle
  {3ca561dd-ccaa-4e67-97d5-b181b72cddd6}, !- Construction Name
  ExteriorRoof,                           !- Intended Surface Type
  ASHRAE 189.1-2009;                      !- Standards Construction Type

OS:Material,
  {cec7ac89-52c4-4f30-8c95-4760584ad53e}, !- Handle
  Roof Insulation [27],                   !- Name
  MediumRough,                            !- Roughness
  0.297000000000001,                      !- Thickness {m}
  0.049,                                  !- Conductivity {W/m-K}
  265,                                    !- Density {kg/m3}
  836.800000000001,                       !- Specific Heat {J/kg-K}
  0.9,                                    !- Thermal Absorptance
  0.7,                                    !- Solar Absorptance
  0.7;                                    !- Visible Absorptance

OS:Construction,
  {3402bee2-c7c1-498e-ba19-207c8b44042b}, !- Handle
  ASHRAE 189.1-2009 ExtWall Mass ClimateZone 1, !- Name
  ,                                       !- Surface Rendering Name
  {ec8c2782-7279-496a-af69-3257b04f23c2}, !- Layer 1
  {221adcd7-7403-452b-a185-b0475b7e6978}, !- Layer 2
  {564a84dd-ef9d-4d4e-aa44-8f407df67405}, !- Layer 3
  {686782c6-a5de-4a97-9a1e-b4e7494b339f}; !- Layer 4

OS:StandardsInformation:Construction,
  {0c7a1a26-bd48-4e3a-8987-511d2cce9954}, !- Handle
  {3402bee2-c7c1-498e-ba19-207c8b44042b}, !- Construction Name
  ExteriorWall,                           !- Intended Surface Type
  ASHRAE 189.1-2009;                      !- Standards Construction Type

OS:Material,
  {ec8c2782-7279-496a-af69-3257b04f23c2}, !- Handle
  1IN Stucco,                             !- Name
  Smooth,                                 !- Roughness
  0.0253,                                 !- Thickness {m}
  0.691799999999999,                      !- Conductivity {W/m-K}
  1858,                                   !- Density {kg/m3}
  836.999999999999,                       !- Specific Heat {J/kg-K}
  0.9,                                    !- Thermal Absorptance
  0.92,                                   !- Solar Absorptance
  0.92;                                   !- Visible Absorptance

OS:Material,
  {221adcd7-7403-452b-a185-b0475b7e6978}, !- Handle
  8IN Concrete HW,                        !- Name
  MediumRough,                            !- Roughness
  0.2033,                                 !- Thickness {m}
  1.72959999999999,                       !- Conductivity {W/m-K}
  2242.99999999999,                       !- Density {kg/m3}
  836.999999999999,                       !- Specific Heat {J/kg-K}
  0.9,                                    !- Thermal Absorptance
  0.65,                                   !- Solar Absorptance
  0.65;                                   !- Visible Absorptance

OS:Material,
  {564a84dd-ef9d-4d4e-aa44-8f407df67405}, !- Handle
  Wall Insulation [31],                   !- Name
  MediumRough,                            !- Roughness
  0.0337000000000001,                     !- Thickness {m}
  0.0432,                                 !- Conductivity {W/m-K}
  91,                                     !- Density {kg/m3}
  836.999999999999,                       !- Specific Heat {J/kg-K}
  0.9,                                    !- Thermal Absorptance
  0.5,                                    !- Solar Absorptance
  0.5;                                    !- Visible Absorptance

OS:Construction,
  {da013eed-3a9a-4743-8f1a-1c1fb7acfcf9}, !- Handle
  ASHRAE 189.1-2009 ExtWall Mass ClimateZone 2, !- Name
  ,                                       !- Surface Rendering Name
  {ec8c2782-7279-496a-af69-3257b04f23c2}, !- Layer 1
  {221adcd7-7403-452b-a185-b0475b7e6978}, !- Layer 2
  {66b7de85-4f02-4a64-b4aa-5c41093e20f2}, !- Layer 3
  {686782c6-a5de-4a97-9a1e-b4e7494b339f}; !- Layer 4

OS:StandardsInformation:Construction,
  {8f8fb637-9750-43b5-b53a-dfb11e746f61}, !- Handle
  {da013eed-3a9a-4743-8f1a-1c1fb7acfcf9}, !- Construction Name
  ExteriorWall,                           !- Intended Surface Type
  ASHRAE 189.1-2009;                      !- Standards Construction Type

OS:Material,
  {66b7de85-4f02-4a64-b4aa-5c41093e20f2}, !- Handle
  Wall Insulation [35],                   !- Name
  MediumRough,                            !- Roughness
  0.0452,                                 !- Thickness {m}
  0.0432,                                 !- Conductivity {W/m-K}
  91,                                     !- Density {kg/m3}
  836.999999999999,                       !- Specific Heat {J/kg-K}
  0.9,                                    !- Thermal Absorptance
  0.5,                                    !- Solar Absorptance
  0.5;                                    !- Visible Absorptance

OS:Construction,
  {dd17e58a-e035-4d8b-beca-de36bae7ce4d}, !- Handle
  ASHRAE 189.1-2009 ExtWall Mass ClimateZone 3, !- Name
  ,                                       !- Surface Rendering Name
  {ec8c2782-7279-496a-af69-3257b04f23c2}, !- Layer 1
  {221adcd7-7403-452b-a185-b0475b7e6978}, !- Layer 2
  {66be3d6c-1a3d-4411-a439-e73c3fcfff67}, !- Layer 3
  {686782c6-a5de-4a97-9a1e-b4e7494b339f}; !- Layer 4

OS:StandardsInformation:Construction,
  {d7cd03d2-16bc-4dfd-9175-400122caa3ae}, !- Handle
  {dd17e58a-e035-4d8b-beca-de36bae7ce4d}, !- Construction Name
  ExteriorWall,                           !- Intended Surface Type
  ASHRAE 189.1-2009;                      !- Standards Construction Type

OS:Material,
  {66be3d6c-1a3d-4411-a439-e73c3fcfff67}, !- Handle
  Wall Insulation [36],                   !- Name
  MediumRough,                            !- Roughness
  0.0565999999999999,                     !- Thickness {m}
  0.0432,                                 !- Conductivity {W/m-K}
  91,                                     !- Density {kg/m3}
  836.999999999999,                       !- Specific Heat {J/kg-K}
  0.9,                                    !- Thermal Absorptance
  0.5,                                    !- Solar Absorptance
  0.5;                                    !- Visible Absorptance

OS:Construction,
  {546efe0d-df20-4ea1-939e-b041665e4a31}, !- Handle
  ASHRAE 189.1-2009 ExtWall Mass ClimateZone 4, !- Name
  ,                                       !- Surface Rendering Name
  {ec8c2782-7279-496a-af69-3257b04f23c2}, !- Layer 1
  {221adcd7-7403-452b-a185-b0475b7e6978}, !- Layer 2
  {86797461-741a-4b13-8736-4bdae538aee7}, !- Layer 3
  {686782c6-a5de-4a97-9a1e-b4e7494b339f}; !- Layer 4

OS:StandardsInformation:Construction,
  {9627b127-f297-4863-b933-73d8cce466bc}, !- Handle
  {546efe0d-df20-4ea1-939e-b041665e4a31}, !- Construction Name
  ExteriorWall,                           !- Intended Surface Type
  ASHRAE 189.1-2009;                      !- Standards Construction Type

OS:Material,
  {86797461-741a-4b13-8736-4bdae538aee7}, !- Handle
  Wall Insulation [37],                   !- Name
  MediumRough,                            !- Roughness
  0.0680999999999999,                     !- Thickness {m}
  0.0432,                                 !- Conductivity {W/m-K}
  91,                                     !- Density {kg/m3}
  836.999999999999,                       !- Specific Heat {J/kg-K}
  0.9,                                    !- Thermal Absorptance
  0.5,                                    !- Solar Absorptance
  0.5;                                    !- Visible Absorptance

OS:Construction,
  {87a9d30d-83ff-4d8f-a2a8-15bb67a75656}, !- Handle
  ASHRAE 189.1-2009 ExtWall Mass ClimateZone 5, !- Name
  ,                                       !- Surface Rendering Name
  {ec8c2782-7279-496a-af69-3257b04f23c2}, !- Layer 1
  {221adcd7-7403-452b-a185-b0475b7e6978}, !- Layer 2
  {bfd87b3c-ade9-486c-bf0d-755343d70cdd}, !- Layer 3
  {686782c6-a5de-4a97-9a1e-b4e7494b339f}; !- Layer 4

OS:StandardsInformation:Construction,
  {5871b993-c810-43a8-85c5-c105f4418a5d}, !- Handle
  {87a9d30d-83ff-4d8f-a2a8-15bb67a75656}, !- Construction Name
  ExteriorWall,                           !- Intended Surface Type
  ASHRAE 189.1-2009;                      !- Standards Construction Type

OS:Material,
  {bfd87b3c-ade9-486c-bf0d-755343d70cdd}, !- Handle
  Wall Insulation [40],                   !- Name
  MediumRough,                            !- Roughness
  0.0793999999999999,                     !- Thickness {m}
  0.0432,                                 !- Conductivity {W/m-K}
  91,                                     !- Density {kg/m3}
  836.999999999999,                       !- Specific Heat {J/kg-K}
  0.9,                                    !- Thermal Absorptance
  0.5,                                    !- Solar Absorptance
  0.5;                                    !- Visible Absorptance

OS:Construction,
  {9408e891-c5d3-4401-b865-c7b2f4c45a48}, !- Handle
  ASHRAE 189.1-2009 ExtWall Mass ClimateZone 6, !- Name
  ,                                       !- Surface Rendering Name
  {ec8c2782-7279-496a-af69-3257b04f23c2}, !- Layer 1
  {221adcd7-7403-452b-a185-b0475b7e6978}, !- Layer 2
  {d538caa1-41f9-4fdd-917e-13e188ec6460}, !- Layer 3
  {686782c6-a5de-4a97-9a1e-b4e7494b339f}; !- Layer 4

OS:StandardsInformation:Construction,
  {35fc236e-59d6-4b2d-8d1f-bf6d235f42d9}, !- Handle
  {9408e891-c5d3-4401-b865-c7b2f4c45a48}, !- Construction Name
  ExteriorWall,                           !- Intended Surface Type
  ASHRAE 189.1-2009;                      !- Standards Construction Type

OS:Material,
  {d538caa1-41f9-4fdd-917e-13e188ec6460}, !- Handle
  Wall Insulation [42],                   !- Name
  MediumRough,                            !- Roughness
  0.0913999999999999,                     !- Thickness {m}
  0.0432,                                 !- Conductivity {W/m-K}
  91,                                     !- Density {kg/m3}
  836.999999999999,                       !- Specific Heat {J/kg-K}
  0.9,                                    !- Thermal Absorptance
  0.5,                                    !- Solar Absorptance
  0.5;                                    !- Visible Absorptance

OS:Construction,
  {18a5ac72-2689-42e0-b728-b541248b846f}, !- Handle
  ASHRAE 189.1-2009 ExtWall Mass ClimateZone 7-8, !- Name
  ,                                       !- Surface Rendering Name
  {ec8c2782-7279-496a-af69-3257b04f23c2}, !- Layer 1
  {221adcd7-7403-452b-a185-b0475b7e6978}, !- Layer 2
  {006e9ab8-1340-42bc-8372-85e436397c1c}, !- Layer 3
  {686782c6-a5de-4a97-9a1e-b4e7494b339f}; !- Layer 4

OS:StandardsInformation:Construction,
  {8cb2f31a-80ea-49ba-b948-13f11800e7b3}, !- Handle
  {18a5ac72-2689-42e0-b728-b541248b846f}, !- Construction Name
  ExteriorWall,                           !- Intended Surface Type
  ASHRAE 189.1-2009;                      !- Standards Construction Type

OS:Material,
  {006e9ab8-1340-42bc-8372-85e436397c1c}, !- Handle
  Wall Insulation [44],                   !- Name
  MediumRough,                            !- Roughness
  0.1104,                                 !- Thickness {m}
  0.0432,                                 !- Conductivity {W/m-K}
  91,                                     !- Density {kg/m3}
  836.999999999999,                       !- Specific Heat {J/kg-K}
  0.9,                                    !- Thermal Absorptance
  0.5,                                    !- Solar Absorptance
  0.5;                                    !- Visible Absorptance

OS:Construction,
  {ab4d2bd2-220b-4b60-87e3-6eb40c823609}, !- Handle
  ASHRAE 189.1-2009 ExtWall Mass ClimateZone alt-res 1, !- Name
  ,                                       !- Surface Rendering Name
  {ec8c2782-7279-496a-af69-3257b04f23c2}, !- Layer 1
  {221adcd7-7403-452b-a185-b0475b7e6978}, !- Layer 2
  {66b7de85-4f02-4a64-b4aa-5c41093e20f2}, !- Layer 3
  {686782c6-a5de-4a97-9a1e-b4e7494b339f}; !- Layer 4

OS:StandardsInformation:Construction,
  {bb1ec1f7-afae-4c17-a329-f786121981be}, !- Handle
  {ab4d2bd2-220b-4b60-87e3-6eb40c823609}, !- Construction Name
  ExteriorWall,                           !- Intended Surface Type
  ASHRAE 189.1-2009;                      !- Standards Construction Type

OS:Construction,
  {09359bb2-8bd0-44f7-9698-d8ff227a20ea}, !- Handle
  ASHRAE 189.1-2009 ExtWall Mass ClimateZone alt-res 2, !- Name
  ,                                       !- Surface Rendering Name
  {ec8c2782-7279-496a-af69-3257b04f23c2}, !- Layer 1
  {221adcd7-7403-452b-a185-b0475b7e6978}, !- Layer 2
  {66be3d6c-1a3d-4411-a439-e73c3fcfff67}, !- Layer 3
  {686782c6-a5de-4a97-9a1e-b4e7494b339f}; !- Layer 4

OS:StandardsInformation:Construction,
  {67846bc8-348b-40af-b367-fca3fb84f768}, !- Handle
  {09359bb2-8bd0-44f7-9698-d8ff227a20ea}, !- Construction Name
  ExteriorWall,                           !- Intended Surface Type
  ASHRAE 189.1-2009;                      !- Standards Construction Type

OS:Construction,
  {432f0961-07a8-41eb-9611-2af05e166361}, !- Handle
  ASHRAE 189.1-2009 ExtWall Mass ClimateZone alt-res 3, !- Name
  ,                                       !- Surface Rendering Name
  {ec8c2782-7279-496a-af69-3257b04f23c2}, !- Layer 1
  {221adcd7-7403-452b-a185-b0475b7e6978}, !- Layer 2
  {86797461-741a-4b13-8736-4bdae538aee7}, !- Layer 3
  {686782c6-a5de-4a97-9a1e-b4e7494b339f}; !- Layer 4

OS:StandardsInformation:Construction,
  {70280848-460f-4bd8-a048-d180c559fa42}, !- Handle
  {432f0961-07a8-41eb-9611-2af05e166361}, !- Construction Name
  ExteriorWall,                           !- Intended Surface Type
  ASHRAE 189.1-2009;                      !- Standards Construction Type

OS:Construction,
  {8388df4b-d8c9-4e2a-9429-90efb8ee61bf}, !- Handle
  ASHRAE 189.1-2009 ExtWall Mass ClimateZone alt-res 4, !- Name
  ,                                       !- Surface Rendering Name
  {ec8c2782-7279-496a-af69-3257b04f23c2}, !- Layer 1
  {221adcd7-7403-452b-a185-b0475b7e6978}, !- Layer 2
  {bfd87b3c-ade9-486c-bf0d-755343d70cdd}, !- Layer 3
  {686782c6-a5de-4a97-9a1e-b4e7494b339f}; !- Layer 4

OS:StandardsInformation:Construction,
  {9f82d440-437c-4069-88d4-5f43e9703323}, !- Handle
  {8388df4b-d8c9-4e2a-9429-90efb8ee61bf}, !- Construction Name
  ExteriorWall,                           !- Intended Surface Type
  ASHRAE 189.1-2009;                      !- Standards Construction Type

OS:Construction,
  {149e9054-d405-4391-be8f-23d58da7c3f6}, !- Handle
  ASHRAE 189.1-2009 ExtWall Mass ClimateZone alt-res 5, !- Name
  ,                                       !- Surface Rendering Name
  {ec8c2782-7279-496a-af69-3257b04f23c2}, !- Layer 1
  {221adcd7-7403-452b-a185-b0475b7e6978}, !- Layer 2
  {d538caa1-41f9-4fdd-917e-13e188ec6460}, !- Layer 3
  {686782c6-a5de-4a97-9a1e-b4e7494b339f}; !- Layer 4

OS:StandardsInformation:Construction,
  {63a44e0d-37da-45cb-9f1e-61fbb327f21f}, !- Handle
  {149e9054-d405-4391-be8f-23d58da7c3f6}, !- Construction Name
  ExteriorWall,                           !- Intended Surface Type
  ASHRAE 189.1-2009;                      !- Standards Construction Type

OS:Construction,
  {09dcb9b1-9027-47c1-8bec-be40119ec83e}, !- Handle
  ASHRAE 189.1-2009 ExtWall Mass ClimateZone alt-res 6, !- Name
  ,                                       !- Surface Rendering Name
  {ec8c2782-7279-496a-af69-3257b04f23c2}, !- Layer 1
  {221adcd7-7403-452b-a185-b0475b7e6978}, !- Layer 2
  {006e9ab8-1340-42bc-8372-85e436397c1c}, !- Layer 3
  {686782c6-a5de-4a97-9a1e-b4e7494b339f}; !- Layer 4

OS:StandardsInformation:Construction,
  {1ae4a83e-6fa7-42d6-b738-78471c3baa79}, !- Handle
  {09dcb9b1-9027-47c1-8bec-be40119ec83e}, !- Construction Name
  ExteriorWall,                           !- Intended Surface Type
  ASHRAE 189.1-2009;                      !- Standards Construction Type

OS:Construction,
  {6de7e09b-1132-4a37-a6e4-c7cd0d8a3b51}, !- Handle
  ASHRAE 189.1-2009 ExtWall Mass ClimateZone alt-res 7, !- Name
  ,                                       !- Surface Rendering Name
  {ec8c2782-7279-496a-af69-3257b04f23c2}, !- Layer 1
  {221adcd7-7403-452b-a185-b0475b7e6978}, !- Layer 2
  {006e9ab8-1340-42bc-8372-85e436397c1c}, !- Layer 3
  {686782c6-a5de-4a97-9a1e-b4e7494b339f}; !- Layer 4

OS:StandardsInformation:Construction,
  {68bbb75e-035e-4408-9940-ca07ef2a3979}, !- Handle
  {6de7e09b-1132-4a37-a6e4-c7cd0d8a3b51}, !- Construction Name
  ExteriorWall,                           !- Intended Surface Type
  ASHRAE 189.1-2009;                      !- Standards Construction Type

OS:Construction,
  {0b2ca277-3f90-45ca-8cbf-1e9b5de1aa6f}, !- Handle
  ASHRAE 189.1-2009 ExtWall Mass ClimateZone alt-res 8, !- Name
  ,                                       !- Surface Rendering Name
  {ec8c2782-7279-496a-af69-3257b04f23c2}, !- Layer 1
  {221adcd7-7403-452b-a185-b0475b7e6978}, !- Layer 2
  {f62613d4-b87a-47ff-aff7-3531ea939831}, !- Layer 3
  {686782c6-a5de-4a97-9a1e-b4e7494b339f}; !- Layer 4

OS:StandardsInformation:Construction,
  {ae36c456-765c-4aa4-9e7a-c9eac0d62522}, !- Handle
  {0b2ca277-3f90-45ca-8cbf-1e9b5de1aa6f}, !- Construction Name
  ExteriorWall,                           !- Intended Surface Type
  ASHRAE 189.1-2009;                      !- Standards Construction Type

OS:Material,
  {f62613d4-b87a-47ff-aff7-3531ea939831}, !- Handle