
OS:Version,
  {1c0a7467-7b04-4345-80de-ca1186db235e}, !- Handle
  1.3.0;                                  !- Version Identifier

OS:Construction,
  {1dd03170-53fc-4b60-9adf-21bd30804632}, !- Handle
  ASHRAE 189.1-2009 AtticFloor ClimateZone 1-8, !- Name
  ,                                       !- Surface Rendering Name
  {9d8ea45c-b7da-41fe-985d-ed72801f3a5a}, !- Layer 1
  {0bce9130-1130-4473-9f50-dccc6739dd3a}, !- Layer 2
  {9d8ea45c-b7da-41fe-985d-ed72801f3a5a}; !- Layer 3

OS:StandardsInformation:Construction,
  {50741473-22b9-42e3-9260-a5ed6c6937bc}, !- Handle
  {1dd03170-53fc-4b60-9adf-21bd30804632}, !- Construction Name
  AtticFloor,                             !- Intended Surface Type
  WoodFramed;                             !- Standards Construction Type

OS:Material,
  {9d8ea45c-b7da-41fe-985d-ed72801f3a5a}, !- Handle
  1/2IN Gypsum,                           !- Name
  Smooth,                                 !- Roughness
  0.0127,                                 !- Thickness {m}
  0.16,                                   !- Conductivity {W/m-K}
  784.9,                                  !- Density {kg/m3}
  830.000000000001,                       !- Specific Heat {J/kg-K}
  0.9,                                    !- Thermal Absorptance
  0.92,                                   !- Solar Absorptance
  0.92;                                   !- Visible Absorptance

OS:Material,
  {0bce9130-1130-4473-9f50-dccc6739dd3a}, !- Handle
  AtticFloor Insulation,                  !- Name
  MediumRough,                            !- Roughness
  0.2379,                                 !- Thickness {m}
  0.049,                                  !- Conductivity {W/m-K}
  265,                                    !- Density {kg/m3}
  836.800000000001,                       !- Specific Heat {J/kg-K}
  0.9,                                    !- Thermal Absorptance
  0.7,                                    !- Solar Absorptance
  0.7;                                    !- Visible Absorptance

OS:Construction,
  {11a573ab-25dc-4453-953a-de9367b469ae}, !- Handle
  ASHRAE 189.1-2009 ExtRoof IEAD ClimateZone 1, !- Name
  ,                                       !- Surface Rendering Name
  {a138d072-d393-46e5-a2d0-b9bd5e7a6cd1}, !- Layer 1
  {ec6016ce-f518-4761-9a08-db04794e1216}, !- Layer 2
  {37e3f7f6-f905-4d18-95dc-442970e76115}; !- Layer 3

OS:StandardsInformation:Construction,
  {c5f51ea4-faf4-43d5-b855-c1c467d527a5}, !- Handle
  {11a573ab-25dc-4453-953a-de9367b469ae}, !- Construction Name
  ExteriorRoof,                           !- Intended Surface Type
  IEAD;                                   !- Standards Construction Type

OS:Material,
  {a138d072-d393-46e5-a2d0-b9bd5e7a6cd1}, !- Handle
  Roof Membrane,                          !- Name
  VeryRough,                              !- Roughness
  0.0095,                                 !- Thickness {m}
  0.16,                                   !- Conductivity {W/m-K}
  1121.29,                                !- Density {kg/m3}
  1460,                                   !- Specific Heat {J/kg-K}
  0.9,                                    !- Thermal Absorptance
  0.7,                                    !- Solar Absorptance
  0.7;                                    !- Visible Absorptance

OS:Material,
  {ec6016ce-f518-4761-9a08-db04794e1216}, !- Handle
  Roof Insulation [18],                   !- Name
  MediumRough,                            !- Roughness
  0.1693,                                 !- Thickness {m}
  0.049,                                  !- Conductivity {W/m-K}
  265,                                    !- Density {kg/m3}
  836.800000000001,                       !- Specific Heat {J/kg-K}
  0.9,                                    !- Thermal Absorptance
  0.7,                                    !- Solar Absorptance
  0.7;                                    !- Visible Absorptance

OS:Material,
  {37e3f7f6-f905-4d18-95dc-442970e76115}, !- Handle
  Metal Decking,                          !- Name
  MediumSmooth,                           !- Roughness
  0.0015,                                 !- Thickness {m}
  45.006,                                 !- Conductivity {W/m-K}
  7680,                                   !- Density {kg/m3}
  418.4,                                  !- Specific Heat {J/kg-K}
  0.9,                                    !- Thermal Absorptance
  0.7,                                    !- Solar Absorptance
  0.3;                                    !- Visible Absorptance

OS:Construction,
  {cf01fede-80e0-4aa1-bda2-9b5a59e0490f}, !- Handle
  ASHRAE 189.1-2009 ExtRoof IEAD ClimateZone 2-5, !- Name
  ,                                       !- Surface Rendering Name
  {a138d072-d393-46e5-a2d0-b9bd5e7a6cd1}, !- Layer 1
  {2a2d358e-a0e4-4e9a-b7de-cdbcd9bfab45}, !- Layer 2
  {37e3f7f6-f905-4d18-95dc-442970e76115}; !- Layer 3

OS:StandardsInformation:Construction,
  {8692e7f5-b7ca-46e7-b67e-5213b974c17a}, !- Handle
  {cf01fede-80e0-4aa1-bda2-9b5a59e0490f}, !- Construction Name
  ExteriorRoof,                           !- Intended Surface Type
  IEAD;                                   !- Standards Construction Type

OS:Material,
  {2a2d358e-a0e4-4e9a-b7de-cdbcd9bfab45}, !- Handle
  Roof Insulation [21],                   !- Name
  MediumRough,                            !- Roughness
  0.2105,                                 !- Thickness {m}
  0.049,                                  !- Conductivity {W/m-K}
  265,                                    !- Density {kg/m3}
  836.800000000001,                       !- Specific Heat {J/kg-K}
  0.9,                                    !- Thermal Absorptance
  0.7,                                    !- Solar Absorptance
  0.7;                                    !- Visible Absorptance

OS:Construction,
  {b936fbb3-c90c-4df2-ba05-cbc9afbe74f7}, !- Handle
  ASHRAE 189.1-2009 ExtRoof IEAD ClimateZone 6, !- Name
  ,                                       !- Surface Rendering Name
  {a138d072-d393-46e5-a2d0-b9bd5e7a6cd1}, !- Layer 1
  {fd8a91e1-3573-48d8-8ae4-6afa78d9bd96}, !- Layer 2
  {37e3f7f6-f905-4d18-95dc-442970e76115}; !- Layer 3

OS:StandardsInformation:Construction,
  {6da6ef0d-3ff9-4e79-9c8b-d7057106b761}, !- Handle
  {b936fbb3-c90c-4df2-ba05-cbc9afbe74f7}, !- Construction Name
  ExteriorRoof,                           !- Intended Surface Type
  IEAD;                                   !- Standards Construction Type

OS:Material,
  {fd8a91e1-3573-48d8-8ae4-6afa78d9bd96}, !- Handle
  Roof Insulation [24],                   !- Name
  MediumRough,                            !- Roughness
  0.260100000000001,                      !- Thickness {m}
  0.049,                                  !- Conductivity {W/m-K}
  265,                                    !- Density {kg/m3}
  836.800000000001,                       !- Specific Heat {J/kg-K}
  0.9,                                    !- Thermal Absorptance
  0.7,                                    !- Solar Absorptance
  0.7;                                    !- Visible Absorptance

OS:Construction,
  {b40a3590-3a9e-41e6-b8c8-c0f0b6a52e20}, !- Handle
  ASHRAE 189.1-2009 ExtRoof IEAD ClimateZone 7-8, !- Name
  ,                                       !- Surface Rendering Name
  {a138d072-d393-46e5-a2d0-b9bd5e7a6cd1}, !- Layer 1
  {61f021e8-979a-45f3-a308-dff6dcc21991}, !- Layer 2
  {37e3f7f6-f905-4d18-95dc-442970e76115}; !- Layer 3

OS:StandardsInformation:Construction,
  {334ef1c3-b691-4aac-8a94-1871748d236f}, !- Handle
  {b40a3590-3a9e-41e6-b8c8-c0f0b6a52e20}, !- Construction Name
  ExteriorRoof,                           !- Intended Surface Type
  IEAD;                                   !- Standards Construction Type

OS:Material,
  {61f021e8-979a-45f3-a308-dff6dcc21991}, !- Handle
  Roof Insulation [26],                   !- Name
  MediumRough,                            !- Roughness
  0.2941,                                 !- Thickness {m}
  0.049,                                  !- Conductivity {W/m-K}
  265,                                    !- Density {kg/m3}
  836.800000000001,                       !- Specific Heat {J/kg-K}
  0.9,                                    !- Thermal Absorptance
  0.7,                                    !- Solar Absorptance
  0.7;                                    !- Visible Absorptance

OS:Construction,
  {b63f21c2-8a65-4595-93e8-78d327721856}, !- Handle
  ASHRAE 189.1-2009 ExtRoof Metal ClimateZone 1, !- Name
  ,                                       !- Surface Rendering Name
  {e1398c37-6704-442c-a3b4-590bdc0d2624}, !- Layer 1
  {af10c036-3c86-4e4c-84dd-97029628fb8f}; !- Layer 2

OS:StandardsInformation:Construction,
  {b8360027-c210-4873-a328-3d54ca092acd}, !- Handle
  {b63f21c2-8a65-4595-93e8-78d327721856}, !- Construction Name
  ExteriorRoof,                           !- Intended Surface Type
  Metal;                                  !- Standards Construction Type

OS:Material,
  {e1398c37-6704-442c-a3b4-590bdc0d2624}, !- Handle
  Metal Roofing,                          !- Name
  MediumSmooth,                           !- Roughness
  0.0015,                                 !- Thickness {m}
  45.006,                                 !- Conductivity {W/m-K}
  7680,                                   !- Density {kg/m3}
  418.4,                                  !- Specific Heat {J/kg-K}
  0.9,                                    !- Thermal Absorptance
  0.3,                                    !- Solar Absorptance
  0.3;                                    !- Visible Absorptance

OS:Material,
  {af10c036-3c86-4e4c-84dd-97029628fb8f}, !- Handle
  Roof Insulation [19],                   !- Name
  MediumRough,                            !- Roughness
  0.1868,                                 !- Thickness {m}
  0.049,                                  !- Conductivity {W/m-K}
  265,                                    !- Density {kg/m3}
  836.800000000001,                       !- Specific Heat {J/kg-K}
  0.9,                                    !- Thermal Absorptance
  0.7,                                    !- Solar Absorptance
  0.7;                                    !- Visible Absorptance

OS:Construction,
  {d9ba7ad5-26c9-4f13-913e-489f3b6ff1f9}, !- Handle
  ASHRAE 189.1-2009 ExtRoof Metal ClimateZone 2-5, !- Name
  ,                                       !- Surface Rendering Name
  {e1398c37-6704-442c-a3b4-590bdc0d2624}, !- Layer 1
  {f26c0fba-e5ba-4635-ba50-425e31f9a892}; !- Layer 2

OS:StandardsInformation:Construction,
  {6d53ce13-65ef-4957-90ca-26db2d236185}, !- Handle
  {d9ba7ad5-26c9-4f13-913e-489f3b6ff1f9}, !- Construction Name
  ExteriorRoof,                           !- Intended Surface Type
  Metal;                                  !- Standards Construction Type

OS:Material,
  {f26c0fba-e5ba-4635-ba50-425e31f9a892}, !- Handle
  Roof Insulation [22],                   !- Name
  MediumRough,                            !- Roughness
  0.2358,                                 !- Thickness {m}
  0.049,                                  !- Conductivity {W/m-K}
  265,                                    !- Density {kg/m3}
  836.800000000001,                       !- Specific Heat {J/kg-K}
  0.9,                                    !- Thermal Absorptance
  0.7,                                    !- Solar Absorptance
  0.7;                                    !- Visible Absorptance

OS:Construction,
  {03d87385-c466-4213-bcd2-927b75229dad}, !- Handle
  ASHRAE 189.1-2009 ExtRoof Metal ClimateZone 6, !- Name
  ,                                       !- Surface Rendering Name
  {e1398c37-6704-442c-a3b4-590bdc0d2624}, !- Layer 1
  {be376504-63e9-4e64-a78b-0e877ffea0d8}; !- Layer 2

OS:StandardsInformation:Construction,
  {3cc2f754-d796-4593-97d6-1adf84c06d43}, !- Handle
  {03d87385-c466-4213-bcd2-927b75229dad}, !- Construction Name
  ExteriorRoof,                           !- Intended Surface Type
  Metal;                                  !- Standards Construction Type

OS:Material,
  {be376504-63e9-4e64-a78b-0e877ffea0d8}, !- Handle
  Roof Insulation [25],                   !- Name
  MediumRough,                            !- Roughness
  0.263,                                  !- Thickness {m}
  0.049,                                  !- Conductivity {W/m-K}
  265,                                    !- Density {kg/m3}
  836.800000000001,                       !- Specific Heat {J/kg-K}
  0.9,                                    !- Thermal Absorptance
  0.7,                                    !- Solar Absorptance
  0.7;                                    !- Visible Absorptance

OS:Construction,
  {d932edf1-40ed-4eae-82b4-aa0c4ebf86af}, !- Handle
  ASHRAE 189.1-2009 ExtRoof Metal ClimateZone 7-8, !- Name
  ,                                       !- Surface Rendering Name
  {e1398c37-6704-442c-a3b4-590bdc0d2624}, !- Layer 1
  {9241e6e7-2d70-41bd-b3c8-6be82d79dbaa}; !- Layer 2

OS:StandardsInformation:Construction,
  {4d797d9a-03ad-40bd-ba89-be6522bd2860}, !- Handle
  {d932edf1-40ed-4eae-82b4-aa0c4ebf86af}, !- Construction Name
  ExteriorRoof,                           !- Intended Surface Type
  Metal;                                  !- Standards Construction Type

OS:Material,
  {9241e6e7-2d70-41bd-b3c8-6be82d79dbaa}, !- Handle
  Roof Insulation [27],                   !- Name
  MediumRough,                            !- Roughness
  0.297000000000001,                      !- Thickness {m}
  0.049,                                  !- Conductivity {W/m-K}
  265,                                    !- Density {kg/m3}
  836.800000000001,                       !- Specific Heat {J/kg-K}
  0.9,                                    !- Thermal Absorptance
  0.7,                                    !- Solar Absorptance
  0.7;                                    !- Visible Absorptance

OS:Construction,
  {c719e8b9-961c-4e2d-8d8a-6c4fdf7db08a}, !- Handle
  ASHRAE 189.1-2009 ExtWall Mass ClimateZone 1, !- Name
  ,                                       !- Surface Rendering Name
  {e0a1df64-c310-4dc9-91b9-2db71ee8d08c}, !- Layer 1
  {5091a838-7412-41ab-a011-be56db1709dc}, !- Layer 2
  {8f292caa-4a55-41c3-ad81-5ed26211aaec}, !- Layer 3
  {9d8ea45c-b7da-41fe-985d-ed72801f3a5a}; !- Layer 4

OS:StandardsInformation:Construction,
  {8b7584ad-4040-4b56-8d7f-8686a70b8d99}, !- Handle
  {c719e8b9-961c-4e2d-8d8a-6c4fdf7db08a}, !- Construction Name
  ExteriorWall,                           !- Intended Surface Type
  Mass;                                   !- Standards Construction Type

OS:Material,
  {e0a1df64-c310-4dc9-91b9-2db71ee8d08c}, !- Handle
  1IN Stucco,                             !- Name
  Smooth,                                 !- Roughness
  0.0253,                                 !- Thickness {m}
  0.691799999999999,                      !- Conductivity {W/m-K}
  1858,                                   !- Density {kg/m3}
  836.999999999999,                       !- Specific Heat {J/kg-K}
  0.9,                                    !- Thermal Absorptance
  0.92,                                   !- Solar Absorptance
  0.92;                                   !- Visible Absorptance

OS:Material,
  {5091a838-7412-41ab-a011-be56db1709dc}, !- Handle
  8IN Concrete HW,                        !- Name
  MediumRough,                            !- Roughness
  0.2033,                                 !- Thickness {m}
  1.72959999999999,                       !- Conductivity {W/m-K}
  2242.99999999999,                       !- Density {kg/m3}
  836.999999999999,                       !- Specific Heat {J/kg-K}
  0.9,                                    !- Thermal Absorptance
  0.65,                                   !- Solar Absorptance
  0.65;                                   !- Visible Absorptance

OS:Material,
  {8f292caa-4a55-41c3-ad81-5ed26211aaec}, !- Handle
  Wall Insulation [31],                   !- Name
  MediumRough,                            !- Roughness
  0.0337000000000001,                     !- Thickness {m}
  0.0432,                                 !- Conductivity {W/m-K}
  91,                                     !- Density {kg/m3}
  836.999999999999,                       !- Specific Heat {J/kg-K}
  0.9,                                    !- Thermal Absorptance
  0.5,                                    !- Solar Absorptance
  0.5;                                    !- Visible Absorptance

OS:Construction,
  {faba0122-8e8c-4b08-a843-5c2f8d65b6bc}, !- Handle
  ASHRAE 189.1-2009 ExtWall Mass ClimateZone 2, !- Name
  ,                                       !- Surface Rendering Name
  {e0a1df64-c310-4dc9-91b9-2db71ee8d08c}, !- Layer 1
  {5091a838-7412-41ab-a011-be56db1709dc}, !- Layer 2
  {5eb684c4-a4dc-49e0-b237-50ad9bc82794}, !- Layer 3
  {9d8ea45c-b7da-41fe-985d-ed72801f3a5a}; !- Layer 4

OS:StandardsInformation:Construction,
  {14ef60ac-b7eb-48bf-ac6a-537b406ca6f3}, !- Handle
  {faba0122-8e8c-4b08-a843-5c2f8d65b6bc}, !- Construction Name
  ExteriorWall,                           !- Intended Surface Type
  Mass;                                   !- Standards Construction Type

OS:Material,
  {5eb684c4-a4dc-49e0-b237-50ad9bc82794}, !- Handle
  Wall Insulation [35],                   !- Name
  MediumRough,                            !- Roughness
  0.0452,                                 !- Thickness {m}
  0.0432,                                 !- Conductivity {W/m-K}
  91,                                     !- Density {kg/m3}
  836.999999999999,                       !- Specific Heat {J/kg-K}
  0.9,                                    !- Thermal Absorptance
  0.5,                                    !- Solar Absorptance
  0.5;                                    !- Visible Absorptance

OS:Construction,
  {76f2dc02-257f-49ab-8d38-775831b12916}, !- Handle
  ASHRAE 189.1-2009 ExtWall Mass ClimateZone 3, !- Name
  ,                                       !- Surface Rendering Name
  {e0a1df64-c310-4dc9-91b9-2db71ee8d08c}, !- Layer 1
  {5091a838-7412-41ab-a011-be56db1709dc}, !- Layer 2
  {a5b80f7d-e7fa-4530-890c-7f6c3220fea8}, !- Layer 3
  {9d8ea45c-b7da-41fe-985d-ed72801f3a5a}; !- Layer 4

OS:StandardsInformation:Construction,
  {2c7f1f50-8c04-4c3f-9cf8-be7f3abd78ce}, !- Handle
  {76f2dc02-257f-49ab-8d38-775831b12916}, !- Construction Name
  ExteriorWall,                           !- Intended Surface Type
  Mass;                                   !- Standards Construction Type

OS:Material,
  {a5b80f7d-e7fa-4530-890c-7f6c3220fea8}, !- Handle
  Wall Insulation [36],                   !- Name
  MediumRough,                            !- Roughness
  0.0565999999999999,                     !- Thickness {m}
  0.0432,                                 !- Conductivity {W/m-K}
  91,                                     !- Density {kg/m3}
  836.999999999999,                       !- Specific Heat {J/kg-K}
  0.9,                                    !- Thermal Absorptance
  0.5,                                    !- Solar Absorptance
  0.5;                                    !- Visible Absorptance

OS:Construction,
  {b1303d82-7057-44e0-9909-125355f9579b}, !- Handle
  ASHRAE 189.1-2009 ExtWall Mass ClimateZone 4, !- Name
  ,                                       !- Surface Rendering Name
  {e0a1df64-c310-4dc9-91b9-2db71ee8d08c}, !- Layer 1
  {5091a838-7412-41ab-a011-be56db1709dc}, !- Layer 2
  {4d1908a9-ff21-42ec-8e0c-64c4ebe096bd}, !- Layer 3
  {9d8ea45c-b7da-41fe-985d-ed72801f3a5a}; !- Layer 4

OS:StandardsInformation:Construction,
  {f1e9d9ec-6758-4931-954a-0533d3f0a89e}, !- Handle
  {b1303d82-7057-44e0-9909-125355f9579b}, !- Construction Name
  ExteriorWall,                           !- Intended Surface Type
  Mass;                                   !- Standards Construction Type

OS:Material,
  {4d1908a9-ff21-42ec-8e0c-64c4ebe096bd}, !- Handle
  Wall Insulation [37],                   !- Name
  MediumRough,                            !- Roughness
  0.0680999999999999,                     !- Thickness {m}
  0.0432,                                 !- Conductivity {W/m-K}
  91,                                     !- Density {kg/m3}
  836.999999999999,                       !- Specific Heat {J/kg-K}
  0.9,                                    !- Thermal Absorptance
  0.5,                                    !- Solar Absorptance
  0.5;                                    !- Visible Absorptance

OS:Construction,
  {700db28a-5a63-4aca-a0c8-a14d31e299d4}, !- Handle
  ASHRAE 189.1-2009 ExtWall Mass ClimateZone 5, !- Name
  ,                                       !- Surface Rendering Name
  {e0a1df64-c310-4dc9-91b9-2db71ee8d08c}, !- Layer 1
  {5091a838-7412-41ab-a011-be56db1709dc}, !- Layer 2
  {a07ac7bd-9578-4229-b351-990a4a3fea49}, !- Layer 3
  {9d8ea45c-b7da-41fe-985d-ed72801f3a5a}; !- Layer 4

OS:StandardsInformation:Construction,
  {54152fd9-ce55-46d0-bb72-43820980ce16}, !- Handle
  {700db28a-5a63-4aca-a0c8-a14d31e299d4}, !- Construction Name
  ExteriorWall,                           !- Intended Surface Type
  Mass;                                   !- Standards Construction Type

OS:Material,
  {a07ac7bd-9578-4229-b351-990a4a3fea49}, !- Handle
  Wall Insulation [40],                   !- Name
  MediumRough,                            !- Roughness
  0.0793999999999999,                     !- Thickness {m}
  0.0432,                                 !- Conductivity {W/m-K}
  91,                                     !- Density {kg/m3}
  836.999999999999,                       !- Specific Heat {J/kg-K}
  0.9,                                    !- Thermal Absorptance
  0.5,                                    !- Solar Absorptance
  0.5;                                    !- Visible Absorptance

OS:Construction,
  {b56d6a0b-9628-4fc5-866a-c7a5aa1f1595}, !- Handle
  ASHRAE 189.1-2009 ExtWall Mass ClimateZone 6, !- Name
  ,                                       !- Surface Rendering Name
  {e0a1df64-c310-4dc9-91b9-2db71ee8d08c}, !- Layer 1
  {5091a838-7412-41ab-a011-be56db1709dc}, !- Layer 2
  {bc357446-8f97-47ea-98c0-4b2b39f4f283}, !- Layer 3
  {9d8ea45c-b7da-41fe-985d-ed72801f3a5a}; !- Layer 4

OS:StandardsInformation:Construction,
  {c7979ccc-e61d-43e6-b976-7bbb48f04fd0}, !- Handle
  {b56d6a0b-9628-4fc5-866a-c7a5aa1f1595}, !- Construction Name
  ExteriorWall,                           !- Intended Surface Type
  Mass;                                   !- Standards Construction Type

OS:Material,
  {bc357446-8f97-47ea-98c0-4b2b39f4f283}, !- Handle
  Wall Insulation [42],                   !- Name
  MediumRough,                            !- Roughness
  0.0913999999999999,                     !- Thickness {m}
  0.0432,                                 !- Conductivity {W/m-K}
  91,                                     !- Density {kg/m3}
  836.999999999999,                       !- Specific Heat {J/kg-K}
  0.9,                                    !- Thermal Absorptance
  0.5,                                    !- Solar Absorptance
  0.5;                                    !- Visible Absorptance

OS:Construction,
  {c007f496-7798-48e5-80ba-6f77e24cbc0d}, !- Handle
  ASHRAE 189.1-2009 ExtWall Mass ClimateZone 7-8, !- Name
  ,                                       !- Surface Rendering Name
  {e0a1df64-c310-4dc9-91b9-2db71ee8d08c}, !- Layer 1
  {5091a838-7412-41ab-a011-be56db1709dc}, !- Layer 2
  {bb366f30-cd3c-4091-8bce-14b553bce8ce}, !- Layer 3
  {9d8ea45c-b7da-41fe-985d-ed72801f3a5a}; !- Layer 4

OS:StandardsInformation:Construction,
  {29552448-2350-4ff6-8c14-05569f5e1089}, !- Handle
  {c007f496-7798-48e5-80ba-6f77e24cbc0d}, !- Construction Name
  ExteriorWall,                           !- Intended Surface Type
  Mass;                                   !- Standards Construction Type

OS:Material,
  {bb366f30-cd3c-4091-8bce-14b553bce8ce}, !- Handle
  Wall Insulation [44],                   !- Name
  MediumRough,                            !- Roughness
  0.1104,                                 !- Thickness {m}
  0.0432,                                 !- Conductivity {W/m-K}
  91,                                     !- Density {kg/m3}
  836.999999999999,                       !- Specific Heat {J/kg-K}
  0.9,                                    !- Thermal Absorptance
  0.5,                                    !- Solar Absorptance
  0.5;                                    !- Visible Absorptance

OS:Construction,
  {aa5a0aea-a22f-48e4-bd80-4ae47fc5df71}, !- Handle
  ASHRAE 189.1-2009 ExtWall Mass ClimateZone alt-res 1, !- Name
  ,                                       !- Surface Rendering Name
  {e0a1df64-c310-4dc9-91b9-2db71ee8d08c}, !- Layer 1
  {5091a838-7412-41ab-a011-be56db1709dc}, !- Layer 2
  {5eb684c4-a4dc-49e0-b237-50ad9bc82794}, !- Layer 3
  {9d8ea45c-b7da-41fe-985d-ed72801f3a5a}; !- Layer 4

OS:StandardsInformation:Construction,
  {dfcab793-eaae-4328-a07b-f177ffd1f51c}, !- Handle
  {aa5a0aea-a22f-48e4-bd80-4ae47fc5df71}, !- Construction Name
  ExteriorWall,                           !- Intended Surface Type
  Mass;                                   !- Standards Construction Type

OS:Construction,
  {9dfddb17-b267-4031-8702-aaa364e726f4}, !- Handle
  ASHRAE 189.1-2009 ExtWall Mass ClimateZone alt-res 2, !- Name
  ,                                       !- Surface Rendering Name
  {e0a1df64-c310-4dc9-91b9-2db71ee8d08c}, !- Layer 1
  {5091a838-7412-41ab-a011-be56db1709dc}, !- Layer 2
  {a5b80f7d-e7fa-4530-890c-7f6c3220fea8}, !- Layer 3
  {9d8ea45c-b7da-41fe-985d-ed72801f3a5a}; !- Layer 4

OS:StandardsInformation:Construction,
  {5b2816e7-3595-41cd-bf15-51b1fd5570b0}, !- Handle
  {9dfddb17-b267-4031-8702-aaa364e726f4}, !- Construction Name
  ExteriorWall,                           !- Intended Surface Type
  Mass;                                   !- Standards Construction Type

OS:Construction,
  {7d829759-ce12-40bf-bf28-14754fa9d6b0}, !- Handle
  ASHRAE 189.1-2009 ExtWall Mass ClimateZone alt-res 3, !- Name
  ,                                       !- Surface Rendering Name
  {e0a1df64-c310-4dc9-91b9-2db71ee8d08c}, !- Layer 1
  {5091a838-7412-41ab-a011-be56db1709dc}, !- Layer 2
  {4d1908a9-ff21-42ec-8e0c-64c4ebe096bd}, !- Layer 3
  {9d8ea45c-b7da-41fe-985d-ed72801f3a5a}; !- Layer 4

OS:StandardsInformation:Construction,
  {72221a2c-5394-498f-aaaa-22c96cb5ed5d}, !- Handle
  {7d829759-ce12-40bf-bf28-14754fa9d6b0}, !- Construction Name
  ExteriorWall,                           !- Intended Surface Type
  Mass;                                   !- Standards Construction Type

OS:Construction,
  {ddc9d8f4-775b-44b7-a970-2686ac90baee}, !- Handle
  ASHRAE 189.1-2009 ExtWall Mass ClimateZone alt-res 4, !- Name
  ,                                       !- Surface Rendering Name
  {e0a1df64-c310-4dc9-91b9-2db71ee8d08c}, !- Layer 1
  {5091a838-7412-41ab-a011-be56db1709dc}, !- Layer 2
  {a07ac7bd-9578-4229-b351-990a4a3fea49}, !- Layer 3
  {9d8ea45c-b7da-41fe-985d-ed72801f3a5a}; !- Layer 4

OS:StandardsInformation:Construction,
  {df4a257e-e462-42ba-91b6-fa1ad0bc2bba}, !- Handle
  {ddc9d8f4-775b-44b7-a970-2686ac90baee}, !- Construction Name
  ExteriorWall,                           !- Intended Surface Type
  Mass;                                   !- Standards Construction Type

OS:Construction,
  {61548c95-a463-4ac5-8a36-43bd337856c4}, !- Handle
  ASHRAE 189.1-2009 ExtWall Mass ClimateZone alt-res 5, !- Name
  ,                                       !- Surface Rendering Name
  {e0a1df64-c310-4dc9-91b9-2db71ee8d08c}, !- Layer 1
  {5091a838-7412-41ab-a011-be56db1709dc}, !- Layer 2
  {bc357446-8f97-47ea-98c0-4b2b39f4f283}, !- Layer 3
  {9d8ea45c-b7da-41fe-985d-ed72801f3a5a}; !- Layer 4

OS:StandardsInformation:Construction,
  {89551b9e-7ec7-49ef-a128-60e5b40a9a81}, !- Handle
  {61548c95-a463-4ac5-8a36-43bd337856c4}, !- Construction Name
  ExteriorWall,                           !- Intended Surface Type
  Mass;                                   !- Standards Construction Type

OS:Construction,
  {c719f31a-0fce-4db9-b569-faff691499a8}, !- Handle
  ASHRAE 189.1-2009 ExtWall Mass ClimateZone alt-res 6, !- Name
  ,                                       !- Surface Rendering Name
  {e0a1df64-c310-4dc9-91b9-2db71ee8d08c}, !- Layer 1
  {5091a838-7412-41ab-a011-be56db1709dc}, !- Layer 2
  {bb366f30-cd3c-4091-8bce-14b553bce8ce}, !- Layer 3
  {9d8ea45c-b7da-41fe-985d-ed72801f3a5a}; !- Layer 4

OS:StandardsInformation:Construction,
  {7533b44b-96a9-430d-b3d6-571db14ad27e}, !- Handle
  {c719f31a-0fce-4db9-b569-faff691499a8}, !- Construction Name
  ExteriorWall,                           !- Intended Surface Type
  Mass;                                   !- Standards Construction Type

OS:Construction,
  {9bad3ec2-2830-4af6-8424-113ece632e76}, !- Handle
  ASHRAE 189.1-2009 ExtWall Mass ClimateZone alt-res 7, !- Name
  ,                                       !- Surface Rendering Name
  {e0a1df64-c310-4dc9-91b9-2db71ee8d08c}, !- Layer 1
  {5091a838-7412-41ab-a011-be56db1709dc}, !- Layer 2
  {bb366f30-cd3c-4091-8bce-14b553bce8ce}, !- Layer 3
  {9d8ea45c-b7da-41fe-985d-ed72801f3a5a}; !- Layer 4

OS:StandardsInformation:Construction,
  {2295c46c-ae56-403e-a2b2-7f8845c233de}, !- Handle
  {9bad3ec2-2830-4af6-8424-113ece632e76}, !- Construction Name
  ExteriorWall,                           !- Intended Surface Type
  Mass;                                   !- Standards Construction Type

OS:Construction,
  {c49fa949-cfbf-4f74-a4ae-0ecd67911956}, !- Handle
  ASHRAE 189.1-2009 ExtWall Mass ClimateZone alt-res 8, !- Name
  ,                                       !- Surface Rendering Name
  {e0a1df64-c310-4dc9-91b9-2db71ee8d08c}, !- Layer 1
  {5091a838-7412-41ab-a011-be56db1709dc}, !- Layer 2
  {413b6064-aa42-4832-85a1-5bc4fab5eabe}, !- Layer 3
  {9d8ea45c-b7da-41fe-985d-ed72801f3a5a}; !- Layer 4

OS:StandardsInformation:Construction,
  {7e062d52-de57-408b-a1a6-9b7cf3decec9}, !- Handle
  {c49fa949-cfbf-4f74-a4ae-0ecd67911956}, !- Construction Name
  ExteriorWall,                           !- Intended Surface Type
  Mass;                                   !- Standards Construction Type

OS:Material,
  {413b6064-aa42-4832-85a1-5bc4fab5eabe}, !- Handle