
OS:Version,
  {3b3888c7-20ab-4301-8030-949825f1f205}, !- Handle
  1.4.0;                                  !- Version Identifier

OS:Construction,
  {fcc81755-211f-4f42-a6ad-fab14b3d0972}, !- Handle
  ASHRAE 189.1-2009 AtticFloor ClimateZone 1-8, !- Name
  ,                                       !- Surface Rendering Name
  {f4b20166-8d2d-4e03-aa8d-f389c35ea5d5}, !- Layer 1
  {334de87e-5b72-49f2-ad4a-1693eb9ccf03}, !- Layer 2
  {f4b20166-8d2d-4e03-aa8d-f389c35ea5d5}; !- Layer 3

OS:StandardsInformation:Construction,
  {a9b75004-cfdd-4ca8-a8f8-1b347ab671b1}, !- Handle
  {fcc81755-211f-4f42-a6ad-fab14b3d0972}, !- Construction Name
  AtticFloor,                             !- Intended Surface Type
  WoodFramed;                             !- Standards Construction Type

OS:Material,
  {f4b20166-8d2d-4e03-aa8d-f389c35ea5d5}, !- Handle
  1/2IN Gypsum,                           !- Name
  Smooth,                                 !- Roughness
  0.0127,                                 !- Thickness {m}
  0.16,                                   !- Conductivity {W/m-K}
  784.9,                                  !- Density {kg/m3}
  830.000000000001,                       !- Specific Heat {J/kg-K}
  0.9,                                    !- Thermal Absorptance
  0.4,                                    !- Solar Absorptance
  0.4;                                    !- Visible Absorptance

OS:Material,
  {334de87e-5b72-49f2-ad4a-1693eb9ccf03}, !- Handle
  AtticFloor Insulation,                  !- Name
  MediumRough,                            !- Roughness
  0.2379,                                 !- Thickness {m}
  0.049,                                  !- Conductivity {W/m-K}
  265,                                    !- Density {kg/m3}
  836.800000000001,                       !- Specific Heat {J/kg-K}
  0.9,                                    !- Thermal Absorptance
  0.7,                                    !- Solar Absorptance
  0.7;                                    !- Visible Absorptance

OS:Construction,
  {516d478e-3f15-460d-8545-e798c54f88a0}, !- Handle
  ASHRAE 189.1-2009 ExtRoof IEAD ClimateZone 1, !- Name
  ,                                       !- Surface Rendering Name
  {fe070cd1-40c6-438e-87f2-74e502b3abc7}, !- Layer 1
  {75e0828a-dda2-4082-af3c-37340a7ca794}, !- Layer 2
  {a1eafd3e-85d6-40ba-9e76-62a92ff0af38}; !- Layer 3

OS:StandardsInformation:Construction,
  {ce661436-6c12-48c1-86b4-acb232da16dd}, !- Handle
  {516d478e-3f15-460d-8545-e798c54f88a0}, !- Construction Name
  ExteriorRoof,                           !- Intended Surface Type
  IEAD;                                   !- Standards Construction Type

OS:Material,
  {fe070cd1-40c6-438e-87f2-74e502b3abc7}, !- Handle
  Roof Membrane,                          !- Name
  VeryRough,                              !- Roughness
  0.0095,                                 !- Thickness {m}
  0.16,                                   !- Conductivity {W/m-K}
  1121.29,                                !- Density {kg/m3}
  1460,                                   !- Specific Heat {J/kg-K}
  0.9,                                    !- Thermal Absorptance
  0.7,                                    !- Solar Absorptance
  0.7;                                    !- Visible Absorptance

OS:Material,
  {75e0828a-dda2-4082-af3c-37340a7ca794}, !- Handle
  Roof Insulation [18],                   !- Name
  MediumRough,                            !- Roughness
  0.1693,                                 !- Thickness {m}
  0.049,                                  !- Conductivity {W/m-K}
  265,                                    !- Density {kg/m3}
  836.800000000001,                       !- Specific Heat {J/kg-K}
  0.9,                                    !- Thermal Absorptance
  0.7,                                    !- Solar Absorptance
  0.7;                                    !- Visible Absorptance

OS:Material,
  {a1eafd3e-85d6-40ba-9e76-62a92ff0af38}, !- Handle
  Metal Decking,                          !- Name
  MediumSmooth,                           !- Roughness
  0.0015,                                 !- Thickness {m}
  45.006,                                 !- Conductivity {W/m-K}
  7680,                                   !- Density {kg/m3}
  418.4,                                  !- Specific Heat {J/kg-K}
  0.9,                                    !- Thermal Absorptance
  0.6,                                    !- Solar Absorptance
  0.6;                                    !- Visible Absorptance

OS:Construction,
  {5da7d41d-cf28-49ef-b26a-9028cd04b42d}, !- Handle
  ASHRAE 189.1-2009 ExtRoof IEAD ClimateZone 2-5, !- Name
  ,                                       !- Surface Rendering Name
  {fe070cd1-40c6-438e-87f2-74e502b3abc7}, !- Layer 1
  {d3fcb72e-da0c-4cca-8cfa-3ba60dbd042f}, !- Layer 2
  {a1eafd3e-85d6-40ba-9e76-62a92ff0af38}; !- Layer 3

OS:StandardsInformation:Construction,
  {b583773a-e3bf-4c74-805a-84f2f9371f6c}, !- Handle
  {5da7d41d-cf28-49ef-b26a-9028cd04b42d}, !- Construction Name
  ExteriorRoof,                           !- Intended Surface Type
  IEAD;                                   !- Standards Construction Type

OS:Material,
  {d3fcb72e-da0c-4cca-8cfa-3ba60dbd042f}, !- Handle
  Roof Insulation [21],                   !- Name
  MediumRough,                            !- Roughness
  0.2105,                                 !- Thickness {m}
  0.049,                                  !- Conductivity {W/m-K}
  265,                                    !- Density {kg/m3}
  836.800000000001,                       !- Specific Heat {J/kg-K}
  0.9,                                    !- Thermal Absorptance
  0.7,                                    !- Solar Absorptance
  0.7;                                    !- Visible Absorptance

OS:Construction,
  {2bb03108-adbd-4735-8aa4-6ffae47584fe}, !- Handle
  ASHRAE 189.1-2009 ExtRoof IEAD ClimateZone 6, !- Name
  ,                                       !- Surface Rendering Name
  {fe070cd1-40c6-438e-87f2-74e502b3abc7}, !- Layer 1
  {3da883a1-509c-474d-98b1-e7f96ecc14b9}, !- Layer 2
  {a1eafd3e-85d6-40ba-9e76-62a92ff0af38}; !- Layer 3

OS:StandardsInformation:Construction,
  {77761b92-a466-46df-8d3b-9209e345f890}, !- Handle
  {2bb03108-adbd-4735-8aa4-6ffae47584fe}, !- Construction Name
  ExteriorRoof,                           !- Intended Surface Type
  IEAD;                                   !- Standards Construction Type

OS:Material,
  {3da883a1-509c-474d-98b1-e7f96ecc14b9}, !- Handle
  Roof Insulation [24],                   !- Name
  MediumRough,                            !- Roughness
  0.260100000000001,                      !- Thickness {m}
  0.049,                                  !- Conductivity {W/m-K}
  265,                                    !- Density {kg/m3}
  836.800000000001,                       !- Specific Heat {J/kg-K}
  0.9,                                    !- Thermal Absorptance
  0.7,                                    !- Solar Absorptance
  0.7;                                    !- Visible Absorptance

OS:Construction,
  {78a171e4-87e7-47eb-943f-a18905d85d61}, !- Handle
  ASHRAE 189.1-2009 ExtRoof IEAD ClimateZone 7-8, !- Name
  ,                                       !- Surface Rendering Name
  {fe070cd1-40c6-438e-87f2-74e502b3abc7}, !- Layer 1
  {31a1abc1-028d-4bed-9d6e-21f6197f89a9}, !- Layer 2
  {a1eafd3e-85d6-40ba-9e76-62a92ff0af38}; !- Layer 3

OS:StandardsInformation:Construction,
  {7e748fcb-36fa-4dc8-a61f-b3a71c158e86}, !- Handle
  {78a171e4-87e7-47eb-943f-a18905d85d61}, !- Construction Name
  ExteriorRoof,                           !- Intended Surface Type
  IEAD;                                   !- Standards Construction Type

OS:Material,
  {31a1abc1-028d-4bed-9d6e-21f6197f89a9}, !- Handle
  Roof Insulation [26],                   !- Name
  MediumRough,                            !- Roughness
  0.2941,                                 !- Thickness {m}
  0.049,                                  !- Conductivity {W/m-K}
  265,                                    !- Density {kg/m3}
  836.800000000001,                       !- Specific Heat {J/kg-K}
  0.9,                                    !- Thermal Absorptance
  0.7,                                    !- Solar Absorptance
  0.7;                                    !- Visible Absorptance

OS:Construction,
  {34110a89-06dd-49c6-9e13-8d2c48e4b54f}, !- Handle
  ASHRAE 189.1-2009 ExtRoof Metal ClimateZone 1, !- Name
  ,                                       !- Surface Rendering Name
  {0d3767f6-86d6-4fa1-83f0-e283188f1d5b}, !- Layer 1
  {124252d6-04e1-4e24-9983-11b7eded1c5c}, !- Layer 2
  {a1eafd3e-85d6-40ba-9e76-62a92ff0af38}; !- Layer 3

OS:StandardsInformation:Construction,
  {40dae443-d7ed-4ad1-a212-c4095d3c98a6}, !- Handle
  {34110a89-06dd-49c6-9e13-8d2c48e4b54f}, !- Construction Name
  ExteriorRoof,                           !- Intended Surface Type
  Metal;                                  !- Standards Construction Type

OS:Material,
  {0d3767f6-86d6-4fa1-83f0-e283188f1d5b}, !- Handle
  Metal Roofing,                          !- Name
  MediumSmooth,                           !- Roughness
  0.0015,                                 !- Thickness {m}
  45.006,                                 !- Conductivity {W/m-K}
  7680,                                   !- Density {kg/m3}
  418.4,                                  !- Specific Heat {J/kg-K}
  0.9,                                    !- Thermal Absorptance
  0.6,                                    !- Solar Absorptance
  0.6;                                    !- Visible Absorptance

OS:Material,
  {124252d6-04e1-4e24-9983-11b7eded1c5c}, !- Handle
  Roof Insulation [19],                   !- Name
  MediumRough,                            !- Roughness
  0.1868,                                 !- Thickness {m}
  0.049,                                  !- Conductivity {W/m-K}
  265,                                    !- Density {kg/m3}
  836.800000000001,                       !- Specific Heat {J/kg-K}
  0.9,                                    !- Thermal Absorptance
  0.7,                                    !- Solar Absorptance
  0.7;                                    !- Visible Absorptance

OS:Construction,
  {4623dbd8-a556-4ed3-8ba2-23eb29e27e69}, !- Handle
  ASHRAE 189.1-2009 ExtRoof Metal ClimateZone 2-5, !- Name
  ,                                       !- Surface Rendering Name
  {0d3767f6-86d6-4fa1-83f0-e283188f1d5b}, !- Layer 1
  {45a9114c-c589-4a57-b6a6-621ea79039bc}, !- Layer 2
  {a1eafd3e-85d6-40ba-9e76-62a92ff0af38}; !- Layer 3

OS:StandardsInformation:Construction,
  {fc7b313c-d811-48bc-acea-4122c3cf1af4}, !- Handle
  {4623dbd8-a556-4ed3-8ba2-23eb29e27e69}, !- Construction Name
  ExteriorRoof,                           !- Intended Surface Type
  Metal;                                  !- Standards Construction Type

OS:Material,
  {45a9114c-c589-4a57-b6a6-621ea79039bc}, !- Handle
  Roof Insulation [22],                   !- Name
  MediumRough,                            !- Roughness
  0.2358,                                 !- Thickness {m}
  0.049,                                  !- Conductivity {W/m-K}
  265,                                    !- Density {kg/m3}
  836.800000000001,                       !- Specific Heat {J/kg-K}
  0.9,                                    !- Thermal Absorptance
  0.7,                                    !- Solar Absorptance
  0.7;                                    !- Visible Absorptance

OS:Construction,
  {b60d8bce-9db7-49f9-8cc2-72a99a2bb1c7}, !- Handle
  ASHRAE 189.1-2009 ExtRoof Metal ClimateZone 6, !- Name
  ,                                       !- Surface Rendering Name
  {0d3767f6-86d6-4fa1-83f0-e283188f1d5b}, !- Layer 1
  {a55f8561-12b1-473f-aa10-cb5c80dd72ff}, !- Layer 2
  {a1eafd3e-85d6-40ba-9e76-62a92ff0af38}; !- Layer 3

OS:StandardsInformation:Construction,
  {6e0ae131-3e3e-4072-9e53-af88dd0f3d70}, !- Handle
  {b60d8bce-9db7-49f9-8cc2-72a99a2bb1c7}, !- Construction Name
  ExteriorRoof,                           !- Intended Surface Type
  Metal;                                  !- Standards Construction Type

OS:Material,
  {a55f8561-12b1-473f-aa10-cb5c80dd72ff}, !- Handle
  Roof Insulation [25],                   !- Name
  MediumRough,                            !- Roughness
  0.263,                                  !- Thickness {m}
  0.049,                                  !- Conductivity {W/m-K}
  265,                                    !- Density {kg/m3}
  836.800000000001,                       !- Specific Heat {J/kg-K}
  0.9,                                    !- Thermal Absorptance
  0.7,                                    !- Solar Absorptance
  0.7;                                    !- Visible Absorptance

OS:Construction,
  {0c174e73-9f6e-4180-9a20-96df3c071503}, !- Handle
  ASHRAE 189.1-2009 ExtRoof Metal ClimateZone 7-8, !- Name
  ,                                       !- Surface Rendering Name
  {0d3767f6-86d6-4fa1-83f0-e283188f1d5b}, !- Layer 1
  {0ddcc208-9beb-426e-b1a2-f02edb309883}, !- Layer 2
  {a1eafd3e-85d6-40ba-9e76-62a92ff0af38}; !- Layer 3

OS:StandardsInformation:Construction,
  {76561de2-2fea-4885-b31b-cda490732a4f}, !- Handle
  {0c174e73-9f6e-4180-9a20-96df3c071503}, !- Construction Name
  ExteriorRoof,                           !- Intended Surface Type
  Metal;                                  !- Standards Construction Type

OS:Material,
  {0ddcc208-9beb-426e-b1a2-f02edb309883}, !- Handle
  Roof Insulation [27],                   !- Name
  MediumRough,                            !- Roughness
  0.297000000000001,                      !- Thickness {m}
  0.049,                                  !- Conductivity {W/m-K}
  265,                                    !- Density {kg/m3}
  836.800000000001,                       !- Specific Heat {J/kg-K}
  0.9,                                    !- Thermal Absorptance
  0.7,                                    !- Solar Absorptance
  0.7;                                    !- Visible Absorptance

OS:Construction,
  {8d74b180-33b0-4667-8ca2-515cb6b7ee8a}, !- Handle
  ASHRAE 189.1-2009 ExtWall Mass ClimateZone 1, !- Name
  ,                                       !- Surface Rendering Name
  {053ac9e2-6b46-467b-9943-a934e4563ace}, !- Layer 1
  {baa42e50-e832-47f8-94fd-a4ee8c070f0e}, !- Layer 2
  {4f83c71e-c0be-48fe-8465-30887b011937}, !- Layer 3
  {f4b20166-8d2d-4e03-aa8d-f389c35ea5d5}; !- Layer 4

OS:StandardsInformation:Construction,
  {b38a1c15-655b-4397-97b2-f96a62b3e0f1}, !- Handle
  {8d74b180-33b0-4667-8ca2-515cb6b7ee8a}, !- Construction Name
  ExteriorWall,                           !- Intended Surface Type
  Mass;                                   !- Standards Construction Type

OS:Material,
  {053ac9e2-6b46-467b-9943-a934e4563ace}, !- Handle
  1IN Stucco,                             !- Name
  Smooth,                                 !- Roughness
  0.0253,                                 !- Thickness {m}
  0.691799999999999,                      !- Conductivity {W/m-K}
  1858,                                   !- Density {kg/m3}
  836.999999999999,                       !- Specific Heat {J/kg-K}
  0.9,                                    !- Thermal Absorptance
  0.92,                                   !- Solar Absorptance
  0.92;                                   !- Visible Absorptance

OS:Material,
  {baa42e50-e832-47f8-94fd-a4ee8c070f0e}, !- Handle
  8IN Concrete HW,                        !- Name
  MediumRough,                            !- Roughness
  0.2033,                                 !- Thickness {m}
  1.72959999999999,                       !- Conductivity {W/m-K}
  2242.99999999999,                       !- Density {kg/m3}
  836.999999999999,                       !- Specific Heat {J/kg-K}
  0.9,                                    !- Thermal Absorptance
  0.65,                                   !- Solar Absorptance
  0.65;                                   !- Visible Absorptance

OS:Material,
  {4f83c71e-c0be-48fe-8465-30887b011937}, !- Handle
  Wall Insulation [31],                   !- Name
  MediumRough,                            !- Roughness
  0.0337000000000001,                     !- Thickness {m}
  0.0432,                                 !- Conductivity {W/m-K}
  91,                                     !- Density {kg/m3}
  836.999999999999,                       !- Specific Heat {J/kg-K}
  0.9,                                    !- Thermal Absorptance
  0.5,                                    !- Solar Absorptance
  0.5;                                    !- Visible Absorptance

OS:Construction,
  {21fd18b8-5ba0-412c-ae82-cc0dbcea76d2}, !- Handle
  ASHRAE 189.1-2009 ExtWall Mass ClimateZone 2, !- Name
  ,                                       !- Surface Rendering Name
  {053ac9e2-6b46-467b-9943-a934e4563ace}, !- Layer 1
  {baa42e50-e832-47f8-94fd-a4ee8c070f0e}, !- Layer 2
  {440f8832-e266-4797-ab52-a9ce9baffa6e}, !- Layer 3
  {f4b20166-8d2d-4e03-aa8d-f389c35ea5d5}; !- Layer 4

OS:StandardsInformation:Construction,
  {1e07abe8-c035-4ac4-908a-1a5ae6cb8d24}, !- Handle
  {21fd18b8-5ba0-412c-ae82-cc0dbcea76d2}, !- Construction Name
  ExteriorWall,                           !- Intended Surface Type
  Mass;                                   !- Standards Construction Type

OS:Material,
  {440f8832-e266-4797-ab52-a9ce9baffa6e}, !- Handle
  Wall Insulation [35],                   !- Name
  MediumRough,                            !- Roughness
  0.0452,                                 !- Thickness {m}
  0.0432,                                 !- Conductivity {W/m-K}
  91,                                     !- Density {kg/m3}
  836.999999999999,                       !- Specific Heat {J/kg-K}
  0.9,                                    !- Thermal Absorptance
  0.5,                                    !- Solar Absorptance
  0.5;                                    !- Visible Absorptance

OS:Construction,
  {2d2a8c38-6808-44f8-ae07-1624630f2e98}, !- Handle
  ASHRAE 189.1-2009 ExtWall Mass ClimateZone 3, !- Name
  ,                                       !- Surface Rendering Name
  {053ac9e2-6b46-467b-9943-a934e4563ace}, !- Layer 1
  {baa42e50-e832-47f8-94fd-a4ee8c070f0e}, !- Layer 2
  {2205d534-055b-4852-af0c-e24b51ec2aba}, !- Layer 3
  {f4b20166-8d2d-4e03-aa8d-f389c35ea5d5}; !- Layer 4

OS:StandardsInformation:Construction,
  {f8e4a38d-883a-4d3a-a2fd-fb4b4362e8c6}, !- Handle
  {2d2a8c38-6808-44f8-ae07-1624630f2e98}, !- Construction Name
  ExteriorWall,                           !- Intended Surface Type
  Mass;                                   !- Standards Construction Type

OS:Material,
  {2205d534-055b-4852-af0c-e24b51ec2aba}, !- Handle
  Wall Insulation [36],                   !- Name
  MediumRough,                            !- Roughness
  0.0565999999999999,                     !- Thickness {m}
  0.0432,                                 !- Conductivity {W/m-K}
  91,                                     !- Density {kg/m3}
  836.999999999999,                       !- Specific Heat {J/kg-K}
  0.9,                                    !- Thermal Absorptance
  0.5,                                    !- Solar Absorptance
  0.5;                                    !- Visible Absorptance

OS:Construction,
  {d8c77213-f758-4010-b0ef-8851a3ed3909}, !- Handle
  ASHRAE 189.1-2009 ExtWall Mass ClimateZone 4, !- Name
  ,                                       !- Surface Rendering Name
  {053ac9e2-6b46-467b-9943-a934e4563ace}, !- Layer 1
  {baa42e50-e832-47f8-94fd-a4ee8c070f0e}, !- Layer 2
  {e9ac0a5c-7735-4ff9-a4ad-5506bd8b4a7c}, !- Layer 3
  {f4b20166-8d2d-4e03-aa8d-f389c35ea5d5}; !- Layer 4

OS:StandardsInformation:Construction,
  {67e3b84d-b8af-4d13-a412-2898a706c52a}, !- Handle
  {d8c77213-f758-4010-b0ef-8851a3ed3909}, !- Construction Name
  ExteriorWall,                           !- Intended Surface Type
  Mass;                                   !- Standards Construction Type

OS:Material,
  {e9ac0a5c-7735-4ff9-a4ad-5506bd8b4a7c}, !- Handle
  Wall Insulation [37],                   !- Name
  MediumRough,                            !- Roughness
  0.0680999999999999,                     !- Thickness {m}
  0.0432,                                 !- Conductivity {W/m-K}
  91,                                     !- Density {kg/m3}
  836.999999999999,                       !- Specific Heat {J/kg-K}
  0.9,                                    !- Thermal Absorptance
  0.5,                                    !- Solar Absorptance
  0.5;                                    !- Visible Absorptance

OS:Construction,
  {70e13c29-9896-4ed9-9fb2-ccec06bec992}, !- Handle
  ASHRAE 189.1-2009 ExtWall Mass ClimateZone 5, !- Name
  ,                                       !- Surface Rendering Name
  {053ac9e2-6b46-467b-9943-a934e4563ace}, !- Layer 1
  {baa42e50-e832-47f8-94fd-a4ee8c070f0e}, !- Layer 2
  {42471d5d-6256-4499-bb6f-ef7759f69a45}, !- Layer 3
  {f4b20166-8d2d-4e03-aa8d-f389c35ea5d5}; !- Layer 4

OS:StandardsInformation:Construction,
  {383444d0-c81b-4eb8-a412-b8075055c449}, !- Handle
  {70e13c29-9896-4ed9-9fb2-ccec06bec992}, !- Construction Name
  ExteriorWall,                           !- Intended Surface Type
  Mass;                                   !- Standards Construction Type

OS:Material,
  {42471d5d-6256-4499-bb6f-ef7759f69a45}, !- Handle
  Wall Insulation [40],                   !- Name
  MediumRough,                            !- Roughness
  0.0793999999999999,                     !- Thickness {m}
  0.0432,                                 !- Conductivity {W/m-K}
  91,                                     !- Density {kg/m3}
  836.999999999999,                       !- Specific Heat {J/kg-K}
  0.9,                                    !- Thermal Absorptance
  0.5,                                    !- Solar Absorptance
  0.5;                                    !- Visible Absorptance

OS:Construction,
  {0b9cb3ef-9f09-432f-a0c5-d735b35c0586}, !- Handle
  ASHRAE 189.1-2009 ExtWall Mass ClimateZone 6, !- Name
  ,                                       !- Surface Rendering Name
  {053ac9e2-6b46-467b-9943-a934e4563ace}, !- Layer 1
  {baa42e50-e832-47f8-94fd-a4ee8c070f0e}, !- Layer 2
  {e058f72c-5058-40f4-b9c5-1b4265dd75aa}, !- Layer 3
  {f4b20166-8d2d-4e03-aa8d-f389c35ea5d5}; !- Layer 4

OS:StandardsInformation:Construction,
  {aea5faa1-7909-4746-b827-c02fa64193b9}, !- Handle
  {0b9cb3ef-9f09-432f-a0c5-d735b35c0586}, !- Construction Name
  ExteriorWall,                           !- Intended Surface Type
  Mass;                                   !- Standards Construction Type

OS:Material,
  {e058f72c-5058-40f4-b9c5-1b4265dd75aa}, !- Handle
  Wall Insulation [42],                   !- Name
  MediumRough,                            !- Roughness
  0.0913999999999999,                     !- Thickness {m}
  0.0432,                                 !- Conductivity {W/m-K}
  91,                                     !- Density {kg/m3}
  836.999999999999,                       !- Specific Heat {J/kg-K}
  0.9,                                    !- Thermal Absorptance
  0.5,                                    !- Solar Absorptance
  0.5;                                    !- Visible Absorptance

OS:Construction,
  {e9b6ab58-b93f-4dd7-b4cc-16c95c903009}, !- Handle
  ASHRAE 189.1-2009 ExtWall Mass ClimateZone 7-8, !- Name
  ,                                       !- Surface Rendering Name
  {053ac9e2-6b46-467b-9943-a934e4563ace}, !- Layer 1
  {baa42e50-e832-47f8-94fd-a4ee8c070f0e}, !- Layer 2
  {1fe640f6-815f-400b-8862-094242a99270}, !- Layer 3
  {f4b20166-8d2d-4e03-aa8d-f389c35ea5d5}; !- Layer 4

OS:StandardsInformation:Construction,
  {18f04381-000b-456f-9678-ba3a3169f08b}, !- Handle
  {e9b6ab58-b93f-4dd7-b4cc-16c95c903009}, !- Construction Name
  ExteriorWall,                           !- Intended Surface Type
  Mass;                                   !- Standards Construction Type

OS:Material,
  {1fe640f6-815f-400b-8862-094242a99270}, !- Handle
  Wall Insulation [44],                   !- Name
  MediumRough,                            !- Roughness
  0.1104,                                 !- Thickness {m}
  0.0432,                                 !- Conductivity {W/m-K}
  91,                                     !- Density {kg/m3}
  836.999999999999,                       !- Specific Heat {J/kg-K}
  0.9,                                    !- Thermal Absorptance
  0.5,                                    !- Solar Absorptance
  0.5;                                    !- Visible Absorptance

OS:Construction,
  {5411806f-434a-4437-b93e-b6562861aa5e}, !- Handle
  ASHRAE 189.1-2009 ExtWall Mass ClimateZone alt-res 1, !- Name
  ,                                       !- Surface Rendering Name
  {053ac9e2-6b46-467b-9943-a934e4563ace}, !- Layer 1
  {baa42e50-e832-47f8-94fd-a4ee8c070f0e}, !- Layer 2
  {440f8832-e266-4797-ab52-a9ce9baffa6e}, !- Layer 3
  {f4b20166-8d2d-4e03-aa8d-f389c35ea5d5}; !- Layer 4

OS:StandardsInformation:Construction,
  {4dc0514e-fa97-4f4c-815d-8d1befa710ac}, !- Handle
  {5411806f-434a-4437-b93e-b6562861aa5e}, !- Construction Name
  ExteriorWall,                           !- Intended Surface Type
  Mass;                                   !- Standards Construction Type

OS:Construction,
  {ae1227d2-6447-4333-b03a-e41d6b71c9d0}, !- Handle
  ASHRAE 189.1-2009 ExtWall Mass ClimateZone alt-res 2, !- Name
  ,                                       !- Surface Rendering Name
  {053ac9e2-6b46-467b-9943-a934e4563ace}, !- Layer 1
  {baa42e50-e832-47f8-94fd-a4ee8c070f0e}, !- Layer 2
  {2205d534-055b-4852-af0c-e24b51ec2aba}, !- Layer 3
  {f4b20166-8d2d-4e03-aa8d-f389c35ea5d5}; !- Layer 4

OS:StandardsInformation:Construction,
  {8e67347a-5672-4fd0-9bcd-378be7b6797b}, !- Handle
  {ae1227d2-6447-4333-b03a-e41d6b71c9d0}, !- Construction Name
  ExteriorWall,                           !- Intended Surface Type
  Mass;                                   !- Standards Construction Type

OS:Construction,
  {ed8b25f4-2ca0-4601-a6bb-0a5650f8fef4}, !- Handle
  ASHRAE 189.1-2009 ExtWall Mass ClimateZone alt-res 3, !- Name
  ,                                       !- Surface Rendering Name
  {053ac9e2-6b46-467b-9943-a934e4563ace}, !- Layer 1
  {baa42e50-e832-47f8-94fd-a4ee8c070f0e}, !- Layer 2
  {e9ac0a5c-7735-4ff9-a4ad-5506bd8b4a7c}, !- Layer 3
  {f4b20166-8d2d-4e03-aa8d-f389c35ea5d5}; !- Layer 4

OS:StandardsInformation:Construction,
  {5e03f7eb-f45f-43e3-a690-0afdc0318f67}, !- Handle
  {ed8b25f4-2ca0-4601-a6bb-0a5650f8fef4}, !- Construction Name
  ExteriorWall,                           !- Intended Surface Type
  Mass;                                   !- Standards Construction Type

OS:Construction,
  {8809bb7b-d38e-403c-9e7e-ebbb19348500}, !- Handle
  ASHRAE 189.1-2009 ExtWall Mass ClimateZone alt-res 4, !- Name
  ,                                       !- Surface Rendering Name
  {053ac9e2-6b46-467b-9943-a934e4563ace}, !- Layer 1
  {baa42e50-e832-47f8-94fd-a4ee8c070f0e}, !- Layer 2
  {42471d5d-6256-4499-bb6f-ef7759f69a45}, !- Layer 3
  {f4b20166-8d2d-4e03-aa8d-f389c35ea5d5}; !- Layer 4

OS:StandardsInformation:Construction,
  {8a867745-1a2c-4454-a0ec-f65110b0916f}, !- Handle
  {8809bb7b-d38e-403c-9e7e-ebbb19348500}, !- Construction Name
  ExteriorWall,                           !- Intended Surface Type
  Mass;                                   !- Standards Construction Type

OS:Construction,
  {c1db9a85-0426-42dc-8f24-4939c9fc9d7a}, !- Handle
  ASHRAE 189.1-2009 ExtWall Mass ClimateZone alt-res 5, !- Name
  ,                                       !- Surface Rendering Name
  {053ac9e2-6b46-467b-9943-a934e4563ace}, !- Layer 1
  {baa42e50-e832-47f8-94fd-a4ee8c070f0e}, !- Layer 2
  {e058f72c-5058-40f4-b9c5-1b4265dd75aa}, !- Layer 3
  {f4b20166-8d2d-4e03-aa8d-f389c35ea5d5}; !- Layer 4

OS:StandardsInformation:Construction,
  {dcc48bc1-70c4-4441-9575-886dc3dcbe75}, !- Handle
  {c1db9a85-0426-42dc-8f24-4939c9fc9d7a}, !- Construction Name
  ExteriorWall,                           !- Intended Surface Type
  Mass;                                   !- Standards Construction Type

OS:Construction,
  {657d699e-0c39-462b-83b3-f50c5a3ab9c8}, !- Handle
  ASHRAE 189.1-2009 ExtWall Mass ClimateZone alt-res 6, !- Name
  ,                                       !- Surface Rendering Name
  {053ac9e2-6b46-467b-9943-a934e4563ace}, !- Layer 1
  {baa42e50-e832-47f8-94fd-a4ee8c070f0e}, !- Layer 2
  {1fe640f6-815f-400b-8862-094242a99270}, !- Layer 3
  {f4b20166-8d2d-4e03-aa8d-f389c35ea5d5}; !- Layer 4

OS:StandardsInformation:Construction,
  {fe694aa1-efcd-4f71-8ee4-55ddbabead9b}, !- Handle
  {657d699e-0c39-462b-83b3-f50c5a3ab9c8}, !- Construction Name
  ExteriorWall,                           !- Intended Surface Type
  Mass;                                   !- Standards Construction Type

OS:Construction,
  {6fbcda9a-c4ec-4b97-8e7b-dd524bde7153}, !- Handle
  ASHRAE 189.1-2009 ExtWall Mass ClimateZone alt-res 7, !- Name
  ,                                       !- Surface Rendering Name
  {053ac9e2-6b46-467b-9943-a934e4563ace}, !- Layer 1
  {baa42e50-e832-47f8-94fd-a4ee8c070f0e}, !- Layer 2
  {1fe640f6-815f-400b-8862-094242a99270}, !- Layer 3
  {f4b20166-8d2d-4e03-aa8d-f389c35ea5d5}; !- Layer 4

OS:StandardsInformation:Construction,
  {a2341e10-865b-45ab-b3dd-4aca6fa51467}, !- Handle
  {6fbcda9a-c4ec-4b97-8e7b-dd524bde7153}, !- Construction Name
  ExteriorWall,                           !- Intended Surface Type
  Mass;                                   !- Standards Construction Type

OS:Construction,
  {a910d1db-dac8-4f2e-bd2d-7e91fcd69727}, !- Handle
  ASHRAE 189.1-2009 ExtWall Mass ClimateZone alt-res 8, !- Name
  ,                                       !- Surface Rendering Name
  {053ac9e2-6b46-467b-9943-a934e4563ace}, !- Layer 1
  {baa42e50-e832-47f8-94fd-a4ee8c070f0e}, !- Layer 2
  {7ce4440b-e724-492c-a6b7-a50a75b1c4db}, !- Layer 3
  {f4b20166-8d2d-4e03-aa8d-f389c35ea5d5}; !- Layer 4

OS:StandardsInformation:Construction,
  {f80b2c66-89a9-423d-a902-7899ed36a9aa}, !- Handle
  {a910d1db-dac8-4f2e-bd2d-7e91fcd69727}, !- Construction Name