
OS:Version,
  {5685b4a7-2578-4f8e-8041-776e6002bf89}, !- Handle
  1.2.3;                                  !- Version Identifier

OS:Construction,
  {6acf9ad8-2e7f-47f4-b6ea-d95f86227e53}, !- Handle
  ASHRAE 189.1-2009 AtticFloor ClimateZone 1-8, !- Name
  ,                                       !- Surface Rendering Name
  {d4bfcbd2-158a-49ac-b0ff-d94407baf42b}, !- Layer 1
  {e25892a8-325a-422b-afd2-c64618c93906}, !- Layer 2
  {d4bfcbd2-158a-49ac-b0ff-d94407baf42b}; !- Layer 3

OS:StandardsInformation:Construction,
  {5d49272a-6023-4e37-b441-9ae8976ba21e}, !- Handle
  {6acf9ad8-2e7f-47f4-b6ea-d95f86227e53}, !- Construction Name
  AtticFloor,                             !- Intended Surface Type
  WoodFramed;                             !- Standards Construction Type

OS:Material,
  {d4bfcbd2-158a-49ac-b0ff-d94407baf42b}, !- Handle
  1/2IN Gypsum,                           !- Name
  Smooth,                                 !- Roughness
  0.0127,                                 !- Thickness {m}
  0.16,                                   !- Conductivity {W/m-K}
  784.9,                                  !- Density {kg/m3}
  830.000000000001,                       !- Specific Heat {J/kg-K}
  0.9,                                    !- Thermal Absorptance
  0.92,                                   !- Solar Absorptance
  0.92;                                   !- Visible Absorptance

OS:Material,
  {e25892a8-325a-422b-afd2-c64618c93906}, !- Handle
  AtticFloor Insulation,                  !- Name
  MediumRough,                            !- Roughness
  0.2379,                                 !- Thickness {m}
  0.049,                                  !- Conductivity {W/m-K}
  265,                                    !- Density {kg/m3}
  836.800000000001,                       !- Specific Heat {J/kg-K}
  0.9,                                    !- Thermal Absorptance
  0.7,                                    !- Solar Absorptance
  0.7;                                    !- Visible Absorptance

OS:Construction,
  {7e167e40-2dac-4e8b-ad66-1b30871f2717}, !- Handle
  ASHRAE 189.1-2009 ExtRoof IEAD ClimateZone 1, !- Name
  ,                                       !- Surface Rendering Name
  {b4b7deac-fdbf-4434-afdb-ba7cf57e165d}, !- Layer 1
  {499238b1-a8ce-4453-a02a-6218ae42dd48}, !- Layer 2
  {8e9f2509-bcdb-43e8-b7ab-63ca3b05da0d}; !- Layer 3

OS:StandardsInformation:Construction,
  {a33a17e9-ecf5-44c4-b98f-e823b1ce0d78}, !- Handle
  {7e167e40-2dac-4e8b-ad66-1b30871f2717}, !- Construction Name
  ExteriorRoof,                           !- Intended Surface Type
  IEAD;                                   !- Standards Construction Type

OS:Material,
  {b4b7deac-fdbf-4434-afdb-ba7cf57e165d}, !- Handle
  Roof Membrane,                          !- Name
  VeryRough,                              !- Roughness
  0.0095,                                 !- Thickness {m}
  0.16,                                   !- Conductivity {W/m-K}
  1121.29,                                !- Density {kg/m3}
  1460,                                   !- Specific Heat {J/kg-K}
  0.9,                                    !- Thermal Absorptance
  0.7,                                    !- Solar Absorptance
  0.7;                                    !- Visible Absorptance

OS:Material,
  {499238b1-a8ce-4453-a02a-6218ae42dd48}, !- Handle
  Roof Insulation [18],                   !- Name
  MediumRough,                            !- Roughness
  0.1693,                                 !- Thickness {m}
  0.049,                                  !- Conductivity {W/m-K}
  265,                                    !- Density {kg/m3}
  836.800000000001,                       !- Specific Heat {J/kg-K}
  0.9,                                    !- Thermal Absorptance
  0.7,                                    !- Solar Absorptance
  0.7;                                    !- Visible Absorptance

OS:Material,
  {8e9f2509-bcdb-43e8-b7ab-63ca3b05da0d}, !- Handle
  Metal Decking,                          !- Name
  MediumSmooth,                           !- Roughness
  0.0015,                                 !- Thickness {m}
  45.006,                                 !- Conductivity {W/m-K}
  7680,                                   !- Density {kg/m3}
  418.4,                                  !- Specific Heat {J/kg-K}
  0.9,                                    !- Thermal Absorptance
  0.7,                                    !- Solar Absorptance
  0.3;                                    !- Visible Absorptance

OS:Construction,
  {1aba69e0-ff24-41cb-b522-8d16edcebf6d}, !- Handle
  ASHRAE 189.1-2009 ExtRoof IEAD ClimateZone 2-5, !- Name
  ,                                       !- Surface Rendering Name
  {b4b7deac-fdbf-4434-afdb-ba7cf57e165d}, !- Layer 1
  {9a06aedd-efab-489f-9d41-bfef1c18f125}, !- Layer 2
  {8e9f2509-bcdb-43e8-b7ab-63ca3b05da0d}; !- Layer 3

OS:StandardsInformation:Construction,
  {15877a23-db05-45b2-903c-a486b1de9126}, !- Handle
  {1aba69e0-ff24-41cb-b522-8d16edcebf6d}, !- Construction Name
  ExteriorRoof,                           !- Intended Surface Type
  IEAD;                                   !- Standards Construction Type

OS:Material,
  {9a06aedd-efab-489f-9d41-bfef1c18f125}, !- Handle
  Roof Insulation [21],                   !- Name
  MediumRough,                            !- Roughness
  0.2105,                                 !- Thickness {m}
  0.049,                                  !- Conductivity {W/m-K}
  265,                                    !- Density {kg/m3}
  836.800000000001,                       !- Specific Heat {J/kg-K}
  0.9,                                    !- Thermal Absorptance
  0.7,                                    !- Solar Absorptance
  0.7;                                    !- Visible Absorptance

OS:Construction,
  {70cd2d90-8f0b-4a49-bd65-bccc55b31916}, !- Handle
  ASHRAE 189.1-2009 ExtRoof IEAD ClimateZone 6, !- Name
  ,                                       !- Surface Rendering Name
  {b4b7deac-fdbf-4434-afdb-ba7cf57e165d}, !- Layer 1
  {4192fd7e-c2e4-493d-88a4-89871f99650c}, !- Layer 2
  {8e9f2509-bcdb-43e8-b7ab-63ca3b05da0d}; !- Layer 3

OS:StandardsInformation:Construction,
  {deb14f57-8ff1-4a2b-be6d-b4b1228b393a}, !- Handle
  {70cd2d90-8f0b-4a49-bd65-bccc55b31916}, !- Construction Name
  ExteriorRoof,                           !- Intended Surface Type
  IEAD;                                   !- Standards Construction Type

OS:Material,
  {4192fd7e-c2e4-493d-88a4-89871f99650c}, !- Handle
  Roof Insulation [24],                   !- Name
  MediumRough,                            !- Roughness
  0.260100000000001,                      !- Thickness {m}
  0.049,                                  !- Conductivity {W/m-K}
  265,                                    !- Density {kg/m3}
  836.800000000001,                       !- Specific Heat {J/kg-K}
  0.9,                                    !- Thermal Absorptance
  0.7,                                    !- Solar Absorptance
  0.7;                                    !- Visible Absorptance

OS:Construction,
  {196474d2-bb02-4e30-952a-9e83e2c0d425}, !- Handle
  ASHRAE 189.1-2009 ExtRoof IEAD ClimateZone 7-8, !- Name
  ,                                       !- Surface Rendering Name
  {b4b7deac-fdbf-4434-afdb-ba7cf57e165d}, !- Layer 1
  {b911d88d-05d0-4002-851d-574f21d074ed}, !- Layer 2
  {8e9f2509-bcdb-43e8-b7ab-63ca3b05da0d}; !- Layer 3

OS:StandardsInformation:Construction,
  {c8396d68-58fb-40fe-85bd-e049a0cb1c5d}, !- Handle
  {196474d2-bb02-4e30-952a-9e83e2c0d425}, !- Construction Name
  ExteriorRoof,                           !- Intended Surface Type
  IEAD;                                   !- Standards Construction Type

OS:Material,
  {b911d88d-05d0-4002-851d-574f21d074ed}, !- Handle
  Roof Insulation [26],                   !- Name
  MediumRough,                            !- Roughness
  0.2941,                                 !- Thickness {m}
  0.049,                                  !- Conductivity {W/m-K}
  265,                                    !- Density {kg/m3}
  836.800000000001,                       !- Specific Heat {J/kg-K}
  0.9,                                    !- Thermal Absorptance
  0.7,                                    !- Solar Absorptance
  0.7;                                    !- Visible Absorptance

OS:Construction,
  {eadab41a-f5e7-4056-b972-0b7ce0db3829}, !- Handle
  ASHRAE 189.1-2009 ExtRoof Metal ClimateZone 1, !- Name
  ,                                       !- Surface Rendering Name
  {f42b943c-454e-4609-872d-23b1cf1080bd}, !- Layer 1
  {6b4a9bdf-0bd1-4fe2-b191-4ae3ef5470b7}; !- Layer 2

OS:StandardsInformation:Construction,
  {2f845449-72aa-4fb0-9e4f-864eb996d862}, !- Handle
  {eadab41a-f5e7-4056-b972-0b7ce0db3829}, !- Construction Name
  ExteriorRoof,                           !- Intended Surface Type
  Metal;                                  !- Standards Construction Type

OS:Material,
  {f42b943c-454e-4609-872d-23b1cf1080bd}, !- Handle
  Metal Roofing,                          !- Name
  MediumSmooth,                           !- Roughness
  0.0015,                                 !- Thickness {m}
  45.006,                                 !- Conductivity {W/m-K}
  7680,                                   !- Density {kg/m3}
  418.4,                                  !- Specific Heat {J/kg-K}
  0.9,                                    !- Thermal Absorptance
  0.3,                                    !- Solar Absorptance
  0.3;                                    !- Visible Absorptance

OS:Material,
  {6b4a9bdf-0bd1-4fe2-b191-4ae3ef5470b7}, !- Handle
  Roof Insulation [19],                   !- Name
  MediumRough,                            !- Roughness
  0.1868,                                 !- Thickness {m}
  0.049,                                  !- Conductivity {W/m-K}
  265,                                    !- Density {kg/m3}
  836.800000000001,                       !- Specific Heat {J/kg-K}
  0.9,                                    !- Thermal Absorptance
  0.7,                                    !- Solar Absorptance
  0.7;                                    !- Visible Absorptance

OS:Construction,
  {4dee9e50-48e7-4d19-b354-96f5f35d4bcb}, !- Handle
  ASHRAE 189.1-2009 ExtRoof Metal ClimateZone 2-5, !- Name
  ,                                       !- Surface Rendering Name
  {f42b943c-454e-4609-872d-23b1cf1080bd}, !- Layer 1
  {9a37f348-f891-455a-9c3e-e70b6f30a674}; !- Layer 2

OS:StandardsInformation:Construction,
  {fa77b85e-0ebe-492d-8895-26ea243642aa}, !- Handle
  {4dee9e50-48e7-4d19-b354-96f5f35d4bcb}, !- Construction Name
  ExteriorRoof,                           !- Intended Surface Type
  Metal;                                  !- Standards Construction Type

OS:Material,
  {9a37f348-f891-455a-9c3e-e70b6f30a674}, !- Handle
  Roof Insulation [22],                   !- Name
  MediumRough,                            !- Roughness
  0.2358,                                 !- Thickness {m}
  0.049,                                  !- Conductivity {W/m-K}
  265,                                    !- Density {kg/m3}
  836.800000000001,                       !- Specific Heat {J/kg-K}
  0.9,                                    !- Thermal Absorptance
  0.7,                                    !- Solar Absorptance
  0.7;                                    !- Visible Absorptance

OS:Construction,
  {23c70b9c-caea-43a1-8f07-710125900000}, !- Handle
  ASHRAE 189.1-2009 ExtRoof Metal ClimateZone 6, !- Name
  ,                                       !- Surface Rendering Name
  {f42b943c-454e-4609-872d-23b1cf1080bd}, !- Layer 1
  {552cd664-d749-4881-a242-bc629e0dd71e}; !- Layer 2

OS:StandardsInformation:Construction,
  {708f9b23-a832-4831-8e59-5ee9e4cf5c0f}, !- Handle
  {23c70b9c-caea-43a1-8f07-710125900000}, !- Construction Name
  ExteriorRoof,                           !- Intended Surface Type
  Metal;                                  !- Standards Construction Type

OS:Material,
  {552cd664-d749-4881-a242-bc629e0dd71e}, !- Handle
  Roof Insulation [25],                   !- Name
  MediumRough,                            !- Roughness
  0.263,                                  !- Thickness {m}
  0.049,                                  !- Conductivity {W/m-K}
  265,                                    !- Density {kg/m3}
  836.800000000001,                       !- Specific Heat {J/kg-K}
  0.9,                                    !- Thermal Absorptance
  0.7,                                    !- Solar Absorptance
  0.7;                                    !- Visible Absorptance

OS:Construction,
  {19edc021-aced-4db0-af6a-28a39b2ef52d}, !- Handle
  ASHRAE 189.1-2009 ExtRoof Metal ClimateZone 7-8, !- Name
  ,                                       !- Surface Rendering Name
  {f42b943c-454e-4609-872d-23b1cf1080bd}, !- Layer 1
  {6f0354ee-8743-4628-9252-07e283ef269c}; !- Layer 2

OS:StandardsInformation:Construction,
  {9e0b83e4-dd81-4c77-ac1e-a41b5c70fd3f}, !- Handle
  {19edc021-aced-4db0-af6a-28a39b2ef52d}, !- Construction Name
  ExteriorRoof,                           !- Intended Surface Type
  Metal;                                  !- Standards Construction Type

OS:Material,
  {6f0354ee-8743-4628-9252-07e283ef269c}, !- Handle
  Roof Insulation [27],                   !- Name
  MediumRough,                            !- Roughness
  0.297000000000001,                      !- Thickness {m}
  0.049,                                  !- Conductivity {W/m-K}
  265,                                    !- Density {kg/m3}
  836.800000000001,                       !- Specific Heat {J/kg-K}
  0.9,                                    !- Thermal Absorptance
  0.7,                                    !- Solar Absorptance
  0.7;                                    !- Visible Absorptance

OS:Construction,
  {bc016c45-1c8e-4b6b-87dc-cee5bd48101f}, !- Handle
  ASHRAE 189.1-2009 ExtWall Mass ClimateZone 1, !- Name
  ,                                       !- Surface Rendering Name
  {8db357c3-1473-4309-b0ca-54797d3095ce}, !- Layer 1
  {bf8f1e77-057a-46a6-b028-613354123f8b}, !- Layer 2
  {f728f507-0588-4139-8237-4f71d12fbdcd}, !- Layer 3
  {d4bfcbd2-158a-49ac-b0ff-d94407baf42b}; !- Layer 4

OS:StandardsInformation:Construction,
  {870c0e84-b564-4d3d-a4b1-490090667899}, !- Handle
  {bc016c45-1c8e-4b6b-87dc-cee5bd48101f}, !- Construction Name
  ExteriorWall,                           !- Intended Surface Type
  Mass;                                   !- Standards Construction Type

OS:Material,
  {8db357c3-1473-4309-b0ca-54797d3095ce}, !- Handle
  1IN Stucco,                             !- Name
  Smooth,                                 !- Roughness
  0.0253,                                 !- Thickness {m}
  0.691799999999999,                      !- Conductivity {W/m-K}
  1858,                                   !- Density {kg/m3}
  836.999999999999,                       !- Specific Heat {J/kg-K}
  0.9,                                    !- Thermal Absorptance
  0.92,                                   !- Solar Absorptance
  0.92;                                   !- Visible Absorptance

OS:Material,
  {bf8f1e77-057a-46a6-b028-613354123f8b}, !- Handle
  8IN Concrete HW,                        !- Name
  MediumRough,                            !- Roughness
  0.2033,                                 !- Thickness {m}
  1.72959999999999,                       !- Conductivity {W/m-K}
  2242.99999999999,                       !- Density {kg/m3}
  836.999999999999,                       !- Specific Heat {J/kg-K}
  0.9,                                    !- Thermal Absorptance
  0.65,                                   !- Solar Absorptance
  0.65;                                   !- Visible Absorptance

OS:Material,
  {f728f507-0588-4139-8237-4f71d12fbdcd}, !- Handle
  Wall Insulation [31],                   !- Name
  MediumRough,                            !- Roughness
  0.0337000000000001,                     !- Thickness {m}
  0.0432,                                 !- Conductivity {W/m-K}
  91,                                     !- Density {kg/m3}
  836.999999999999,                       !- Specific Heat {J/kg-K}
  0.9,                                    !- Thermal Absorptance
  0.5,                                    !- Solar Absorptance
  0.5;                                    !- Visible Absorptance

OS:Construction,
  {6f54d816-9eaa-49db-afc2-9d4f3de8a604}, !- Handle
  ASHRAE 189.1-2009 ExtWall Mass ClimateZone 2, !- Name
  ,                                       !- Surface Rendering Name
  {8db357c3-1473-4309-b0ca-54797d3095ce}, !- Layer 1
  {bf8f1e77-057a-46a6-b028-613354123f8b}, !- Layer 2
  {2932a988-157a-4296-b869-29f56817b0c0}, !- Layer 3
  {d4bfcbd2-158a-49ac-b0ff-d94407baf42b}; !- Layer 4

OS:StandardsInformation:Construction,
  {90497b24-5fc1-48bd-8215-ce79a46ca3b3}, !- Handle
  {6f54d816-9eaa-49db-afc2-9d4f3de8a604}, !- Construction Name
  ExteriorWall,                           !- Intended Surface Type
  Mass;                                   !- Standards Construction Type

OS:Material,
  {2932a988-157a-4296-b869-29f56817b0c0}, !- Handle
  Wall Insulation [35],                   !- Name
  MediumRough,                            !- Roughness
  0.0452,                                 !- Thickness {m}
  0.0432,                                 !- Conductivity {W/m-K}
  91,                                     !- Density {kg/m3}
  836.999999999999,                       !- Specific Heat {J/kg-K}
  0.9,                                    !- Thermal Absorptance
  0.5,                                    !- Solar Absorptance
  0.5;                                    !- Visible Absorptance

OS:Construction,
  {9256c82d-2134-4478-9edf-794d6b6db7d0}, !- Handle
  ASHRAE 189.1-2009 ExtWall Mass ClimateZone 3, !- Name
  ,                                       !- Surface Rendering Name
  {8db357c3-1473-4309-b0ca-54797d3095ce}, !- Layer 1
  {bf8f1e77-057a-46a6-b028-613354123f8b}, !- Layer 2
  {05ba606d-1cd4-40ad-a394-4a16c3b206e4}, !- Layer 3
  {d4bfcbd2-158a-49ac-b0ff-d94407baf42b}; !- Layer 4

OS:StandardsInformation:Construction,
  {35b5feef-f54e-4e47-9706-eb9ff7036dd1}, !- Handle
  {9256c82d-2134-4478-9edf-794d6b6db7d0}, !- Construction Name
  ExteriorWall,                           !- Intended Surface Type
  Mass;                                   !- Standards Construction Type

OS:Material,
  {05ba606d-1cd4-40ad-a394-4a16c3b206e4}, !- Handle
  Wall Insulation [36],                   !- Name
  MediumRough,                            !- Roughness
  0.0565999999999999,                     !- Thickness {m}
  0.0432,                                 !- Conductivity {W/m-K}
  91,                                     !- Density {kg/m3}
  836.999999999999,                       !- Specific Heat {J/kg-K}
  0.9,                                    !- Thermal Absorptance
  0.5,                                    !- Solar Absorptance
  0.5;                                    !- Visible Absorptance

OS:Construction,
  {0b2ceaa9-a0fd-443c-b62e-ff77abe535c8}, !- Handle
  ASHRAE 189.1-2009 ExtWall Mass ClimateZone 4, !- Name
  ,                                       !- Surface Rendering Name
  {8db357c3-1473-4309-b0ca-54797d3095ce}, !- Layer 1
  {bf8f1e77-057a-46a6-b028-613354123f8b}, !- Layer 2
  {aba9e6bb-99e2-467b-84a6-935e202a42a3}, !- Layer 3
  {d4bfcbd2-158a-49ac-b0ff-d94407baf42b}; !- Layer 4

OS:StandardsInformation:Construction,
  {74bf288b-0c1c-4715-9d51-737db91756e2}, !- Handle
  {0b2ceaa9-a0fd-443c-b62e-ff77abe535c8}, !- Construction Name
  ExteriorWall,                           !- Intended Surface Type
  Mass;                                   !- Standards Construction Type

OS:Material,
  {aba9e6bb-99e2-467b-84a6-935e202a42a3}, !- Handle
  Wall Insulation [37],                   !- Name
  MediumRough,                            !- Roughness
  0.0680999999999999,                     !- Thickness {m}
  0.0432,                                 !- Conductivity {W/m-K}
  91,                                     !- Density {kg/m3}
  836.999999999999,                       !- Specific Heat {J/kg-K}
  0.9,                                    !- Thermal Absorptance
  0.5,                                    !- Solar Absorptance
  0.5;                                    !- Visible Absorptance

OS:Construction,
  {94e0cf0f-a708-4993-ab94-0247c29659ee}, !- Handle
  ASHRAE 189.1-2009 ExtWall Mass ClimateZone 5, !- Name
  ,                                       !- Surface Rendering Name
  {8db357c3-1473-4309-b0ca-54797d3095ce}, !- Layer 1
  {bf8f1e77-057a-46a6-b028-613354123f8b}, !- Layer 2
  {7ea43a86-1412-4811-b3e4-bdb18e3e477f}, !- Layer 3
  {d4bfcbd2-158a-49ac-b0ff-d94407baf42b}; !- Layer 4

OS:StandardsInformation:Construction,
  {f8a75a95-d375-45fe-816b-1f0c182acf52}, !- Handle
  {94e0cf0f-a708-4993-ab94-0247c29659ee}, !- Construction Name
  ExteriorWall,                           !- Intended Surface Type
  Mass;                                   !- Standards Construction Type

OS:Material,
  {7ea43a86-1412-4811-b3e4-bdb18e3e477f}, !- Handle
  Wall Insulation [40],                   !- Name
  MediumRough,                            !- Roughness
  0.0793999999999999,                     !- Thickness {m}
  0.0432,                                 !- Conductivity {W/m-K}
  91,                                     !- Density {kg/m3}
  836.999999999999,                       !- Specific Heat {J/kg-K}
  0.9,                                    !- Thermal Absorptance
  0.5,                                    !- Solar Absorptance
  0.5;                                    !- Visible Absorptance

OS:Construction,
  {c37ab845-807e-4825-9102-bcfc75fb8a9d}, !- Handle
  ASHRAE 189.1-2009 ExtWall Mass ClimateZone 6, !- Name
  ,                                       !- Surface Rendering Name
  {8db357c3-1473-4309-b0ca-54797d3095ce}, !- Layer 1
  {bf8f1e77-057a-46a6-b028-613354123f8b}, !- Layer 2
  {9f6b2a13-9fae-4a16-8581-355c20055c45}, !- Layer 3
  {d4bfcbd2-158a-49ac-b0ff-d94407baf42b}; !- Layer 4

OS:StandardsInformation:Construction,
  {550a7eac-3351-4864-9535-1f0a5a854b58}, !- Handle
  {c37ab845-807e-4825-9102-bcfc75fb8a9d}, !- Construction Name
  ExteriorWall,                           !- Intended Surface Type
  Mass;                                   !- Standards Construction Type

OS:Material,
  {9f6b2a13-9fae-4a16-8581-355c20055c45}, !- Handle
  Wall Insulation [42],                   !- Name
  MediumRough,                            !- Roughness
  0.0913999999999999,                     !- Thickness {m}
  0.0432,                                 !- Conductivity {W/m-K}
  91,                                     !- Density {kg/m3}
  836.999999999999,                       !- Specific Heat {J/kg-K}
  0.9,                                    !- Thermal Absorptance
  0.5,                                    !- Solar Absorptance
  0.5;                                    !- Visible Absorptance

OS:Construction,
  {76a30b6c-93db-4546-9f58-2c5f8c7ba29b}, !- Handle
  ASHRAE 189.1-2009 ExtWall Mass ClimateZone 7-8, !- Name
  ,                                       !- Surface Rendering Name
  {8db357c3-1473-4309-b0ca-54797d3095ce}, !- Layer 1
  {bf8f1e77-057a-46a6-b028-613354123f8b}, !- Layer 2
  {861bf0f4-092b-419d-8658-762b5ff67443}, !- Layer 3
  {d4bfcbd2-158a-49ac-b0ff-d94407baf42b}; !- Layer 4

OS:StandardsInformation:Construction,
  {e6109589-38af-4407-a27b-4c74f415db4a}, !- Handle
  {76a30b6c-93db-4546-9f58-2c5f8c7ba29b}, !- Construction Name
  ExteriorWall,                           !- Intended Surface Type
  Mass;                                   !- Standards Construction Type

OS:Material,
  {861bf0f4-092b-419d-8658-762b5ff67443}, !- Handle
  Wall Insulation [44],                   !- Name
  MediumRough,                            !- Roughness
  0.1104,                                 !- Thickness {m}
  0.0432,                                 !- Conductivity {W/m-K}
  91,                                     !- Density {kg/m3}
  836.999999999999,                       !- Specific Heat {J/kg-K}
  0.9,                                    !- Thermal Absorptance
  0.5,                                    !- Solar Absorptance
  0.5;                                    !- Visible Absorptance

OS:Construction,
  {cb6e4a31-e0ac-4ea3-8476-aac366b1ec8f}, !- Handle
  ASHRAE 189.1-2009 ExtWall Mass ClimateZone alt-res 1, !- Name
  ,                                       !- Surface Rendering Name
  {8db357c3-1473-4309-b0ca-54797d3095ce}, !- Layer 1
  {bf8f1e77-057a-46a6-b028-613354123f8b}, !- Layer 2
  {2932a988-157a-4296-b869-29f56817b0c0}, !- Layer 3
  {d4bfcbd2-158a-49ac-b0ff-d94407baf42b}; !- Layer 4

OS:StandardsInformation:Construction,
  {668f73bf-e084-4ffa-8663-7c0aae1b0401}, !- Handle
  {cb6e4a31-e0ac-4ea3-8476-aac366b1ec8f}, !- Construction Name
  ExteriorWall,                           !- Intended Surface Type
  Mass;                                   !- Standards Construction Type

OS:Construction,
  {fa1955c6-d701-4e9c-980c-bb5e8a6e1a65}, !- Handle
  ASHRAE 189.1-2009 ExtWall Mass ClimateZone alt-res 2, !- Name
  ,                                       !- Surface Rendering Name
  {8db357c3-1473-4309-b0ca-54797d3095ce}, !- Layer 1
  {bf8f1e77-057a-46a6-b028-613354123f8b}, !- Layer 2
  {05ba606d-1cd4-40ad-a394-4a16c3b206e4}, !- Layer 3
  {d4bfcbd2-158a-49ac-b0ff-d94407baf42b}; !- Layer 4

OS:StandardsInformation:Construction,
  {0154d6e4-438b-4a3e-8da4-001342b81d6a}, !- Handle
  {fa1955c6-d701-4e9c-980c-bb5e8a6e1a65}, !- Construction Name
  ExteriorWall,                           !- Intended Surface Type
  Mass;                                   !- Standards Construction Type

OS:Construction,
  {0d4d5987-eaae-44ad-b910-11dfd03fa7aa}, !- Handle
  ASHRAE 189.1-2009 ExtWall Mass ClimateZone alt-res 3, !- Name
  ,                                       !- Surface Rendering Name
  {8db357c3-1473-4309-b0ca-54797d3095ce}, !- Layer 1
  {bf8f1e77-057a-46a6-b028-613354123f8b}, !- Layer 2
  {aba9e6bb-99e2-467b-84a6-935e202a42a3}, !- Layer 3
  {d4bfcbd2-158a-49ac-b0ff-d94407baf42b}; !- Layer 4

OS:StandardsInformation:Construction,
  {eb2fa911-afb8-4388-ae90-1228985cbe02}, !- Handle
  {0d4d5987-eaae-44ad-b910-11dfd03fa7aa}, !- Construction Name
  ExteriorWall,                           !- Intended Surface Type
  Mass;                                   !- Standards Construction Type

OS:Construction,
  {80c0de7d-232b-44ca-966d-b47dda45bde0}, !- Handle
  ASHRAE 189.1-2009 ExtWall Mass ClimateZone alt-res 4, !- Name
  ,                                       !- Surface Rendering Name
  {8db357c3-1473-4309-b0ca-54797d3095ce}, !- Layer 1
  {bf8f1e77-057a-46a6-b028-613354123f8b}, !- Layer 2
  {7ea43a86-1412-4811-b3e4-bdb18e3e477f}, !- Layer 3
  {d4bfcbd2-158a-49ac-b0ff-d94407baf42b}; !- Layer 4

OS:StandardsInformation:Construction,
  {fb947db4-983d-48c9-8887-cba247ae38fe}, !- Handle
  {80c0de7d-232b-44ca-966d-b47dda45bde0}, !- Construction Name
  ExteriorWall,                           !- Intended Surface Type
  Mass;                                   !- Standards Construction Type

OS:Construction,
  {9c73e9ff-d7ee-4a4b-9329-c5dd8f40b0c8}, !- Handle
  ASHRAE 189.1-2009 ExtWall Mass ClimateZone alt-res 5, !- Name
  ,                                       !- Surface Rendering Name
  {8db357c3-1473-4309-b0ca-54797d3095ce}, !- Layer 1
  {bf8f1e77-057a-46a6-b028-613354123f8b}, !- Layer 2
  {9f6b2a13-9fae-4a16-8581-355c20055c45}, !- Layer 3
  {d4bfcbd2-158a-49ac-b0ff-d94407baf42b}; !- Layer 4

OS:StandardsInformation:Construction,
  {5efb388a-8c1a-431b-bfac-8530a894a834}, !- Handle
  {9c73e9ff-d7ee-4a4b-9329-c5dd8f40b0c8}, !- Construction Name
  ExteriorWall,                           !- Intended Surface Type
  Mass;                                   !- Standards Construction Type

OS:Construction,
  {8a47d115-b846-48d7-8a50-39ada8cfb7b1}, !- Handle
  ASHRAE 189.1-2009 ExtWall Mass ClimateZone alt-res 6, !- Name
  ,                                       !- Surface Rendering Name
  {8db357c3-1473-4309-b0ca-54797d3095ce}, !- Layer 1
  {bf8f1e77-057a-46a6-b028-613354123f8b}, !- Layer 2
  {861bf0f4-092b-419d-8658-762b5ff67443}, !- Layer 3
  {d4bfcbd2-158a-49ac-b0ff-d94407baf42b}; !- Layer 4

OS:StandardsInformation:Construction,
  {d03d22fd-98f0-41fe-897e-c030cb2d2d97}, !- Handle
  {8a47d115-b846-48d7-8a50-39ada8cfb7b1}, !- Construction Name
  ExteriorWall,                           !- Intended Surface Type
  Mass;                                   !- Standards Construction Type

OS:Construction,
  {ef864f10-6285-48bd-af46-76aaa371a1a0}, !- Handle
  ASHRAE 189.1-2009 ExtWall Mass ClimateZone alt-res 7, !- Name
  ,                                       !- Surface Rendering Name
  {8db357c3-1473-4309-b0ca-54797d3095ce}, !- Layer 1
  {bf8f1e77-057a-46a6-b028-613354123f8b}, !- Layer 2
  {861bf0f4-092b-419d-8658-762b5ff67443}, !- Layer 3
  {d4bfcbd2-158a-49ac-b0ff-d94407baf42b}; !- Layer 4

OS:StandardsInformation:Construction,
  {6f611ca1-4a04-42a7-b7e9-c477a4a544b0}, !- Handle
  {ef864f10-6285-48bd-af46-76aaa371a1a0}, !- Construction Name
  ExteriorWall,                           !- Intended Surface Type
  Mass;                                   !- Standards Construction Type

OS:Construction,
  {62738c06-7f38-4b87-a9cb-1d84ce521b38}, !- Handle
  ASHRAE 189.1-2009 ExtWall Mass ClimateZone alt-res 8, !- Name
  ,                                       !- Surface Rendering Name
  {8db357c3-1473-4309-b0ca-54797d3095ce}, !- Layer 1
  {bf8f1e77-057a-46a6-b028-613354123f8b}, !- Layer 2
  {32e58e0f-d43f-4007-84a4-bfb215320c37}, !- Layer 3
  {d4bfcbd2-158a-49ac-b0ff-d94407baf42b}; !- Layer 4

OS:StandardsInformation:Construction,
  {6e39c667-e1d6-469e-9b6d-3243e1d3063d}, !- Handle
  {62738c06-7f38-4b87-a9cb-1d84ce521b38}, !- Construction Name
  ExteriorWall,                           !- Intended Surface Type
  Mass;                                   !- Standards Construction Type

OS:Material,
  {32e58e0f-d43f-4007-84a4-bfb215320c37}, !- Handle