
OS:Version,
  {a3af38cd-d605-4dea-a1b4-8178f222974d}, !- Handle
  1.3.3;                                  !- Version Identifier

OS:Construction,
  {b684fbe8-774c-4af8-8afd-13c5f30cb09d}, !- Handle
  ASHRAE 189.1-2009 AtticFloor ClimateZone 1-8, !- Name
  ,                                       !- Surface Rendering Name
  {06350974-e6d1-42b9-ab62-e644bdbc13ad}, !- Layer 1
  {2837b6b1-93e2-40b1-be78-e5902d59817e}, !- Layer 2
  {06350974-e6d1-42b9-ab62-e644bdbc13ad}; !- Layer 3

OS:StandardsInformation:Construction,
  {a450d62e-d01c-457f-9ffa-cb9e6d9c5af3}, !- Handle
  {b684fbe8-774c-4af8-8afd-13c5f30cb09d}, !- Construction Name
  AtticFloor,                             !- Intended Surface Type
  WoodFramed;                             !- Standards Construction Type

OS:Material,
  {06350974-e6d1-42b9-ab62-e644bdbc13ad}, !- Handle
  1/2IN Gypsum,                           !- Name
  Smooth,                                 !- Roughness
  0.0127,                                 !- Thickness {m}
  0.16,                                   !- Conductivity {W/m-K}
  784.9,                                  !- Density {kg/m3}
  830.000000000001,                       !- Specific Heat {J/kg-K}
  0.9,                                    !- Thermal Absorptance
  0.92,                                   !- Solar Absorptance
  0.92;                                   !- Visible Absorptance

OS:Material,
  {2837b6b1-93e2-40b1-be78-e5902d59817e}, !- Handle
  AtticFloor Insulation,                  !- Name
  MediumRough,                            !- Roughness
  0.2379,                                 !- Thickness {m}
  0.049,                                  !- Conductivity {W/m-K}
  265,                                    !- Density {kg/m3}
  836.800000000001,                       !- Specific Heat {J/kg-K}
  0.9,                                    !- Thermal Absorptance
  0.7,                                    !- Solar Absorptance
  0.7;                                    !- Visible Absorptance

OS:Construction,
  {f02c8e8c-c4dc-4c94-ba66-a4ddd431cd7c}, !- Handle
  ASHRAE 189.1-2009 ExtRoof IEAD ClimateZone 1, !- Name
  ,                                       !- Surface Rendering Name
  {7ab31aba-a20a-4410-9bec-522061d7da77}, !- Layer 1
  {5565c283-b082-42a1-9357-efd1600ec8d0}, !- Layer 2
  {65024b1f-c4b5-493e-869e-5f163d8a6f6d}; !- Layer 3

OS:StandardsInformation:Construction,
  {ffd1870d-3203-4538-86fb-cf3398d43865}, !- Handle
  {f02c8e8c-c4dc-4c94-ba66-a4ddd431cd7c}, !- Construction Name
  ExteriorRoof,                           !- Intended Surface Type
  IEAD;                                   !- Standards Construction Type

OS:Material,
  {7ab31aba-a20a-4410-9bec-522061d7da77}, !- Handle
  Roof Membrane,                          !- Name
  VeryRough,                              !- Roughness
  0.0095,                                 !- Thickness {m}
  0.16,                                   !- Conductivity {W/m-K}
  1121.29,                                !- Density {kg/m3}
  1460,                                   !- Specific Heat {J/kg-K}
  0.9,                                    !- Thermal Absorptance
  0.7,                                    !- Solar Absorptance
  0.7;                                    !- Visible Absorptance

OS:Material,
  {5565c283-b082-42a1-9357-efd1600ec8d0}, !- Handle
  Roof Insulation [18],                   !- Name
  MediumRough,                            !- Roughness
  0.1693,                                 !- Thickness {m}
  0.049,                                  !- Conductivity {W/m-K}
  265,                                    !- Density {kg/m3}
  836.800000000001,                       !- Specific Heat {J/kg-K}
  0.9,                                    !- Thermal Absorptance
  0.7,                                    !- Solar Absorptance
  0.7;                                    !- Visible Absorptance

OS:Material,
  {65024b1f-c4b5-493e-869e-5f163d8a6f6d}, !- Handle
  Metal Decking,                          !- Name
  MediumSmooth,                           !- Roughness
  0.0015,                                 !- Thickness {m}
  45.006,                                 !- Conductivity {W/m-K}
  7680,                                   !- Density {kg/m3}
  418.4,                                  !- Specific Heat {J/kg-K}
  0.9,                                    !- Thermal Absorptance
  0.7,                                    !- Solar Absorptance
  0.3;                                    !- Visible Absorptance

OS:Construction,
  {eaf430ca-c01c-4957-b342-bab29fd7ecfa}, !- Handle
  ASHRAE 189.1-2009 ExtRoof IEAD ClimateZone 2-5, !- Name
  ,                                       !- Surface Rendering Name
  {7ab31aba-a20a-4410-9bec-522061d7da77}, !- Layer 1
  {552d527f-aaf0-409f-89a2-74c848c0320d}, !- Layer 2
  {65024b1f-c4b5-493e-869e-5f163d8a6f6d}; !- Layer 3

OS:StandardsInformation:Construction,
  {749cef1c-3ed6-4c35-b8be-9c140377f2af}, !- Handle
  {eaf430ca-c01c-4957-b342-bab29fd7ecfa}, !- Construction Name
  ExteriorRoof,                           !- Intended Surface Type
  IEAD;                                   !- Standards Construction Type

OS:Material,
  {552d527f-aaf0-409f-89a2-74c848c0320d}, !- Handle
  Roof Insulation [21],                   !- Name
  MediumRough,                            !- Roughness
  0.2105,                                 !- Thickness {m}
  0.049,                                  !- Conductivity {W/m-K}
  265,                                    !- Density {kg/m3}
  836.800000000001,                       !- Specific Heat {J/kg-K}
  0.9,                                    !- Thermal Absorptance
  0.7,                                    !- Solar Absorptance
  0.7;                                    !- Visible Absorptance

OS:Construction,
  {78d90b23-3c04-4e23-96f8-29747ce21c82}, !- Handle
  ASHRAE 189.1-2009 ExtRoof IEAD ClimateZone 6, !- Name
  ,                                       !- Surface Rendering Name
  {7ab31aba-a20a-4410-9bec-522061d7da77}, !- Layer 1
  {18c3fca7-60a2-4039-9777-ccdcb7721452}, !- Layer 2
  {65024b1f-c4b5-493e-869e-5f163d8a6f6d}; !- Layer 3

OS:StandardsInformation:Construction,
  {8a66903e-ee8b-4310-adb6-0fdc2b09ae7f}, !- Handle
  {78d90b23-3c04-4e23-96f8-29747ce21c82}, !- Construction Name
  ExteriorRoof,                           !- Intended Surface Type
  IEAD;                                   !- Standards Construction Type

OS:Material,
  {18c3fca7-60a2-4039-9777-ccdcb7721452}, !- Handle
  Roof Insulation [24],                   !- Name
  MediumRough,                            !- Roughness
  0.260100000000001,                      !- Thickness {m}
  0.049,                                  !- Conductivity {W/m-K}
  265,                                    !- Density {kg/m3}
  836.800000000001,                       !- Specific Heat {J/kg-K}
  0.9,                                    !- Thermal Absorptance
  0.7,                                    !- Solar Absorptance
  0.7;                                    !- Visible Absorptance

OS:Construction,
  {cc5f77df-a893-4ef1-8eac-85df85bec21c}, !- Handle
  ASHRAE 189.1-2009 ExtRoof IEAD ClimateZone 7-8, !- Name
  ,                                       !- Surface Rendering Name
  {7ab31aba-a20a-4410-9bec-522061d7da77}, !- Layer 1
  {62273bd0-4141-47dd-acbf-6662b2de223e}, !- Layer 2
  {65024b1f-c4b5-493e-869e-5f163d8a6f6d}; !- Layer 3

OS:StandardsInformation:Construction,
  {205b4e72-3a42-4fe5-abd8-929acffdc2da}, !- Handle
  {cc5f77df-a893-4ef1-8eac-85df85bec21c}, !- Construction Name
  ExteriorRoof,                           !- Intended Surface Type
  IEAD;                                   !- Standards Construction Type

OS:Material,
  {62273bd0-4141-47dd-acbf-6662b2de223e}, !- Handle
  Roof Insulation [26],                   !- Name
  MediumRough,                            !- Roughness
  0.2941,                                 !- Thickness {m}
  0.049,                                  !- Conductivity {W/m-K}
  265,                                    !- Density {kg/m3}
  836.800000000001,                       !- Specific Heat {J/kg-K}
  0.9,                                    !- Thermal Absorptance
  0.7,                                    !- Solar Absorptance
  0.7;                                    !- Visible Absorptance

OS:Construction,
  {dfe755c8-661f-4b84-a0d5-814e58da547f}, !- Handle
  ASHRAE 189.1-2009 ExtRoof Metal ClimateZone 1, !- Name
  ,                                       !- Surface Rendering Name
  {7c45b7c1-d686-48ce-8d4a-7a33e4014fb7}, !- Layer 1
  {62b268c7-fa0c-4a3d-954a-67844534dc9f}; !- Layer 2

OS:StandardsInformation:Construction,
  {bd074d5c-73ee-408c-bbf8-485aa7b8c371}, !- Handle
  {dfe755c8-661f-4b84-a0d5-814e58da547f}, !- Construction Name
  ExteriorRoof,                           !- Intended Surface Type
  Metal;                                  !- Standards Construction Type

OS:Material,
  {7c45b7c1-d686-48ce-8d4a-7a33e4014fb7}, !- Handle
  Metal Roofing,                          !- Name
  MediumSmooth,                           !- Roughness
  0.0015,                                 !- Thickness {m}
  45.006,                                 !- Conductivity {W/m-K}
  7680,                                   !- Density {kg/m3}
  418.4,                                  !- Specific Heat {J/kg-K}
  0.9,                                    !- Thermal Absorptance
  0.3,                                    !- Solar Absorptance
  0.3;                                    !- Visible Absorptance

OS:Material,
  {62b268c7-fa0c-4a3d-954a-67844534dc9f}, !- Handle
  Roof Insulation [19],                   !- Name
  MediumRough,                            !- Roughness
  0.1868,                                 !- Thickness {m}
  0.049,                                  !- Conductivity {W/m-K}
  265,                                    !- Density {kg/m3}
  836.800000000001,                       !- Specific Heat {J/kg-K}
  0.9,                                    !- Thermal Absorptance
  0.7,                                    !- Solar Absorptance
  0.7;                                    !- Visible Absorptance

OS:Construction,
  {437ec745-2ebf-42ab-a1ac-3c2c75294077}, !- Handle
  ASHRAE 189.1-2009 ExtRoof Metal ClimateZone 2-5, !- Name
  ,                                       !- Surface Rendering Name
  {7c45b7c1-d686-48ce-8d4a-7a33e4014fb7}, !- Layer 1
  {a574f7cb-9e2a-4747-abfb-615de65d0900}; !- Layer 2

OS:StandardsInformation:Construction,
  {db69df6c-60a1-43b7-913b-b18ceaa21d70}, !- Handle
  {437ec745-2ebf-42ab-a1ac-3c2c75294077}, !- Construction Name
  ExteriorRoof,                           !- Intended Surface Type
  Metal;                                  !- Standards Construction Type

OS:Material,
  {a574f7cb-9e2a-4747-abfb-615de65d0900}, !- Handle
  Roof Insulation [22],                   !- Name
  MediumRough,                            !- Roughness
  0.2358,                                 !- Thickness {m}
  0.049,                                  !- Conductivity {W/m-K}
  265,                                    !- Density {kg/m3}
  836.800000000001,                       !- Specific Heat {J/kg-K}
  0.9,                                    !- Thermal Absorptance
  0.7,                                    !- Solar Absorptance
  0.7;                                    !- Visible Absorptance

OS:Construction,
  {e130e44c-9ca6-4e65-a280-47b6ca4e6bd1}, !- Handle
  ASHRAE 189.1-2009 ExtRoof Metal ClimateZone 6, !- Name
  ,                                       !- Surface Rendering Name
  {7c45b7c1-d686-48ce-8d4a-7a33e4014fb7}, !- Layer 1
  {19053b41-728a-4c5f-a3bb-4ed2b49b64ae}; !- Layer 2

OS:StandardsInformation:Construction,
  {fdede25e-58ca-48ee-9440-724be5aa47aa}, !- Handle
  {e130e44c-9ca6-4e65-a280-47b6ca4e6bd1}, !- Construction Name
  ExteriorRoof,                           !- Intended Surface Type
  Metal;                                  !- Standards Construction Type

OS:Material,
  {19053b41-728a-4c5f-a3bb-4ed2b49b64ae}, !- Handle
  Roof Insulation [25],                   !- Name
  MediumRough,                            !- Roughness
  0.263,                                  !- Thickness {m}
  0.049,                                  !- Conductivity {W/m-K}
  265,                                    !- Density {kg/m3}
  836.800000000001,                       !- Specific Heat {J/kg-K}
  0.9,                                    !- Thermal Absorptance
  0.7,                                    !- Solar Absorptance
  0.7;                                    !- Visible Absorptance

OS:Construction,
  {66703d79-af96-48aa-98f5-92ec7543063d}, !- Handle
  ASHRAE 189.1-2009 ExtRoof Metal ClimateZone 7-8, !- Name
  ,                                       !- Surface Rendering Name
  {7c45b7c1-d686-48ce-8d4a-7a33e4014fb7}, !- Layer 1
  {5f333042-6f66-4e1a-b64d-daa13c4f2ca4}; !- Layer 2

OS:StandardsInformation:Construction,
  {35b64a4c-4611-429c-abc2-076ee2f59d80}, !- Handle
  {66703d79-af96-48aa-98f5-92ec7543063d}, !- Construction Name
  ExteriorRoof,                           !- Intended Surface Type
  Metal;                                  !- Standards Construction Type

OS:Material,
  {5f333042-6f66-4e1a-b64d-daa13c4f2ca4}, !- Handle
  Roof Insulation [27],                   !- Name
  MediumRough,                            !- Roughness
  0.297000000000001,                      !- Thickness {m}
  0.049,                                  !- Conductivity {W/m-K}
  265,                                    !- Density {kg/m3}
  836.800000000001,                       !- Specific Heat {J/kg-K}
  0.9,                                    !- Thermal Absorptance
  0.7,                                    !- Solar Absorptance
  0.7;                                    !- Visible Absorptance

OS:Construction,
  {db128bb0-7767-4aab-9021-fa31d693160a}, !- Handle
  ASHRAE 189.1-2009 ExtWall Mass ClimateZone 1, !- Name
  ,                                       !- Surface Rendering Name
  {1d707571-9b83-47fa-b86b-9f325a85ebad}, !- Layer 1
  {f5778ae8-495b-4c3b-9dcd-e7db766226e6}, !- Layer 2
  {fc3390c6-c6c8-48b8-9c32-a038711455f1}, !- Layer 3
  {06350974-e6d1-42b9-ab62-e644bdbc13ad}; !- Layer 4

OS:StandardsInformation:Construction,
  {11d33285-abcb-458c-be74-066c4c302b7e}, !- Handle
  {db128bb0-7767-4aab-9021-fa31d693160a}, !- Construction Name
  ExteriorWall,                           !- Intended Surface Type
  Mass;                                   !- Standards Construction Type

OS:Material,
  {1d707571-9b83-47fa-b86b-9f325a85ebad}, !- Handle
  1IN Stucco,                             !- Name
  Smooth,                                 !- Roughness
  0.0253,                                 !- Thickness {m}
  0.691799999999999,                      !- Conductivity {W/m-K}
  1858,                                   !- Density {kg/m3}
  836.999999999999,                       !- Specific Heat {J/kg-K}
  0.9,                                    !- Thermal Absorptance
  0.92,                                   !- Solar Absorptance
  0.92;                                   !- Visible Absorptance

OS:Material,
  {f5778ae8-495b-4c3b-9dcd-e7db766226e6}, !- Handle
  8IN Concrete HW,                        !- Name
  MediumRough,                            !- Roughness
  0.2033,                                 !- Thickness {m}
  1.72959999999999,                       !- Conductivity {W/m-K}
  2242.99999999999,                       !- Density {kg/m3}
  836.999999999999,                       !- Specific Heat {J/kg-K}
  0.9,                                    !- Thermal Absorptance
  0.65,                                   !- Solar Absorptance
  0.65;                                   !- Visible Absorptance

OS:Material,
  {fc3390c6-c6c8-48b8-9c32-a038711455f1}, !- Handle
  Wall Insulation [31],                   !- Name
  MediumRough,                            !- Roughness
  0.0337000000000001,                     !- Thickness {m}
  0.0432,                                 !- Conductivity {W/m-K}
  91,                                     !- Density {kg/m3}
  836.999999999999,                       !- Specific Heat {J/kg-K}
  0.9,                                    !- Thermal Absorptance
  0.5,                                    !- Solar Absorptance
  0.5;                                    !- Visible Absorptance

OS:Construction,
  {6c9f254b-14e3-4435-b40d-2a85a52856c6}, !- Handle
  ASHRAE 189.1-2009 ExtWall Mass ClimateZone 2, !- Name
  ,                                       !- Surface Rendering Name
  {1d707571-9b83-47fa-b86b-9f325a85ebad}, !- Layer 1
  {f5778ae8-495b-4c3b-9dcd-e7db766226e6}, !- Layer 2
  {711cfbf4-9277-4cc0-a689-940a3ecce3fd}, !- Layer 3
  {06350974-e6d1-42b9-ab62-e644bdbc13ad}; !- Layer 4

OS:StandardsInformation:Construction,
  {2be05914-e9af-409f-bec0-ae2e42957eee}, !- Handle
  {6c9f254b-14e3-4435-b40d-2a85a52856c6}, !- Construction Name
  ExteriorWall,                           !- Intended Surface Type
  Mass;                                   !- Standards Construction Type

OS:Material,
  {711cfbf4-9277-4cc0-a689-940a3ecce3fd}, !- Handle
  Wall Insulation [35],                   !- Name
  MediumRough,                            !- Roughness
  0.0452,                                 !- Thickness {m}
  0.0432,                                 !- Conductivity {W/m-K}
  91,                                     !- Density {kg/m3}
  836.999999999999,                       !- Specific Heat {J/kg-K}
  0.9,                                    !- Thermal Absorptance
  0.5,                                    !- Solar Absorptance
  0.5;                                    !- Visible Absorptance

OS:Construction,
  {ac60bf8e-014f-416b-80cd-a111e85dc06a}, !- Handle
  ASHRAE 189.1-2009 ExtWall Mass ClimateZone 3, !- Name
  ,                                       !- Surface Rendering Name
  {1d707571-9b83-47fa-b86b-9f325a85ebad}, !- Layer 1
  {f5778ae8-495b-4c3b-9dcd-e7db766226e6}, !- Layer 2
  {470c5783-3385-4573-8f5b-edba1ce3b6b3}, !- Layer 3
  {06350974-e6d1-42b9-ab62-e644bdbc13ad}; !- Layer 4

OS:StandardsInformation:Construction,
  {7fd66a4e-59ae-46b1-9b19-250a0276a841}, !- Handle
  {ac60bf8e-014f-416b-80cd-a111e85dc06a}, !- Construction Name
  ExteriorWall,                           !- Intended Surface Type
  Mass;                                   !- Standards Construction Type

OS:Material,
  {470c5783-3385-4573-8f5b-edba1ce3b6b3}, !- Handle
  Wall Insulation [36],                   !- Name
  MediumRough,                            !- Roughness
  0.0565999999999999,                     !- Thickness {m}
  0.0432,                                 !- Conductivity {W/m-K}
  91,                                     !- Density {kg/m3}
  836.999999999999,                       !- Specific Heat {J/kg-K}
  0.9,                                    !- Thermal Absorptance
  0.5,                                    !- Solar Absorptance
  0.5;                                    !- Visible Absorptance

OS:Construction,
  {ccb259e9-6073-4053-9d8b-d0f6ec7568f0}, !- Handle
  ASHRAE 189.1-2009 ExtWall Mass ClimateZone 4, !- Name
  ,                                       !- Surface Rendering Name
  {1d707571-9b83-47fa-b86b-9f325a85ebad}, !- Layer 1
  {f5778ae8-495b-4c3b-9dcd-e7db766226e6}, !- Layer 2
  {fe5f7f0a-fd1e-4a98-93e4-459bfd33c95e}, !- Layer 3
  {06350974-e6d1-42b9-ab62-e644bdbc13ad}; !- Layer 4

OS:StandardsInformation:Construction,
  {0e248a28-5fc2-4a62-ab47-ab2ee468bbc0}, !- Handle
  {ccb259e9-6073-4053-9d8b-d0f6ec7568f0}, !- Construction Name
  ExteriorWall,                           !- Intended Surface Type
  Mass;                                   !- Standards Construction Type

OS:Material,
  {fe5f7f0a-fd1e-4a98-93e4-459bfd33c95e}, !- Handle
  Wall Insulation [37],                   !- Name
  MediumRough,                            !- Roughness
  0.0680999999999999,                     !- Thickness {m}
  0.0432,                                 !- Conductivity {W/m-K}
  91,                                     !- Density {kg/m3}
  836.999999999999,                       !- Specific Heat {J/kg-K}
  0.9,                                    !- Thermal Absorptance
  0.5,                                    !- Solar Absorptance
  0.5;                                    !- Visible Absorptance

OS:Construction,
  {821242d1-eb9f-4e9d-9037-f376aabe25b9}, !- Handle
  ASHRAE 189.1-2009 ExtWall Mass ClimateZone 5, !- Name
  ,                                       !- Surface Rendering Name
  {1d707571-9b83-47fa-b86b-9f325a85ebad}, !- Layer 1
  {f5778ae8-495b-4c3b-9dcd-e7db766226e6}, !- Layer 2
  {9d0c0d85-2cea-416b-adef-9d8c1625d71a}, !- Layer 3
  {06350974-e6d1-42b9-ab62-e644bdbc13ad}; !- Layer 4

OS:StandardsInformation:Construction,
  {6b0cd8ec-7e77-498d-8f49-5fdc70e570ba}, !- Handle
  {821242d1-eb9f-4e9d-9037-f376aabe25b9}, !- Construction Name
  ExteriorWall,                           !- Intended Surface Type
  Mass;                                   !- Standards Construction Type

OS:Material,
  {9d0c0d85-2cea-416b-adef-9d8c1625d71a}, !- Handle
  Wall Insulation [40],                   !- Name
  MediumRough,                            !- Roughness
  0.0793999999999999,                     !- Thickness {m}
  0.0432,                                 !- Conductivity {W/m-K}
  91,                                     !- Density {kg/m3}
  836.999999999999,                       !- Specific Heat {J/kg-K}
  0.9,                                    !- Thermal Absorptance
  0.5,                                    !- Solar Absorptance
  0.5;                                    !- Visible Absorptance

OS:Construction,
  {bfa54e10-c95d-483c-be76-5a6bb7af3453}, !- Handle
  ASHRAE 189.1-2009 ExtWall Mass ClimateZone 6, !- Name
  ,                                       !- Surface Rendering Name
  {1d707571-9b83-47fa-b86b-9f325a85ebad}, !- Layer 1
  {f5778ae8-495b-4c3b-9dcd-e7db766226e6}, !- Layer 2
  {4f8bfbcd-ac06-450f-94f2-8e28b6d0009f}, !- Layer 3
  {06350974-e6d1-42b9-ab62-e644bdbc13ad}; !- Layer 4

OS:StandardsInformation:Construction,
  {e76b8e22-fe45-42ad-abb1-4c017588d949}, !- Handle
  {bfa54e10-c95d-483c-be76-5a6bb7af3453}, !- Construction Name
  ExteriorWall,                           !- Intended Surface Type
  Mass;                                   !- Standards Construction Type

OS:Material,
  {4f8bfbcd-ac06-450f-94f2-8e28b6d0009f}, !- Handle
  Wall Insulation [42],                   !- Name
  MediumRough,                            !- Roughness
  0.0913999999999999,                     !- Thickness {m}
  0.0432,                                 !- Conductivity {W/m-K}
  91,                                     !- Density {kg/m3}
  836.999999999999,                       !- Specific Heat {J/kg-K}
  0.9,                                    !- Thermal Absorptance
  0.5,                                    !- Solar Absorptance
  0.5;                                    !- Visible Absorptance

OS:Construction,
  {9315516c-d0b6-473c-ad83-c975ab255e8e}, !- Handle
  ASHRAE 189.1-2009 ExtWall Mass ClimateZone 7-8, !- Name
  ,                                       !- Surface Rendering Name
  {1d707571-9b83-47fa-b86b-9f325a85ebad}, !- Layer 1
  {f5778ae8-495b-4c3b-9dcd-e7db766226e6}, !- Layer 2
  {9bda72df-7645-4602-9cf8-516c9998f0e3}, !- Layer 3
  {06350974-e6d1-42b9-ab62-e644bdbc13ad}; !- Layer 4

OS:StandardsInformation:Construction,
  {ff9d8446-05ba-480b-a7fc-e4b19e846100}, !- Handle
  {9315516c-d0b6-473c-ad83-c975ab255e8e}, !- Construction Name
  ExteriorWall,                           !- Intended Surface Type
  Mass;                                   !- Standards Construction Type

OS:Material,
  {9bda72df-7645-4602-9cf8-516c9998f0e3}, !- Handle
  Wall Insulation [44],                   !- Name
  MediumRough,                            !- Roughness
  0.1104,                                 !- Thickness {m}
  0.0432,                                 !- Conductivity {W/m-K}
  91,                                     !- Density {kg/m3}
  836.999999999999,                       !- Specific Heat {J/kg-K}
  0.9,                                    !- Thermal Absorptance
  0.5,                                    !- Solar Absorptance
  0.5;                                    !- Visible Absorptance

OS:Construction,
  {e010e3b0-1213-418a-9a2f-c5c141e43b7b}, !- Handle
  ASHRAE 189.1-2009 ExtWall Mass ClimateZone alt-res 1, !- Name
  ,                                       !- Surface Rendering Name
  {1d707571-9b83-47fa-b86b-9f325a85ebad}, !- Layer 1
  {f5778ae8-495b-4c3b-9dcd-e7db766226e6}, !- Layer 2
  {711cfbf4-9277-4cc0-a689-940a3ecce3fd}, !- Layer 3
  {06350974-e6d1-42b9-ab62-e644bdbc13ad}; !- Layer 4

OS:StandardsInformation:Construction,
  {9bf9bc46-f44d-4a5c-8bc1-59b365b410ee}, !- Handle
  {e010e3b0-1213-418a-9a2f-c5c141e43b7b}, !- Construction Name
  ExteriorWall,                           !- Intended Surface Type
  Mass;                                   !- Standards Construction Type

OS:Construction,
  {7b641d57-d8c4-44cb-87d5-21c373345808}, !- Handle
  ASHRAE 189.1-2009 ExtWall Mass ClimateZone alt-res 2, !- Name
  ,                                       !- Surface Rendering Name
  {1d707571-9b83-47fa-b86b-9f325a85ebad}, !- Layer 1
  {f5778ae8-495b-4c3b-9dcd-e7db766226e6}, !- Layer 2
  {470c5783-3385-4573-8f5b-edba1ce3b6b3}, !- Layer 3
  {06350974-e6d1-42b9-ab62-e644bdbc13ad}; !- Layer 4

OS:StandardsInformation:Construction,
  {6f00497c-fbea-4275-9b11-b5fa2986d135}, !- Handle
  {7b641d57-d8c4-44cb-87d5-21c373345808}, !- Construction Name
  ExteriorWall,                           !- Intended Surface Type
  Mass;                                   !- Standards Construction Type

OS:Construction,
  {65703696-4e3c-4a0c-8515-484759e6e076}, !- Handle
  ASHRAE 189.1-2009 ExtWall Mass ClimateZone alt-res 3, !- Name
  ,                                       !- Surface Rendering Name
  {1d707571-9b83-47fa-b86b-9f325a85ebad}, !- Layer 1
  {f5778ae8-495b-4c3b-9dcd-e7db766226e6}, !- Layer 2
  {fe5f7f0a-fd1e-4a98-93e4-459bfd33c95e}, !- Layer 3
  {06350974-e6d1-42b9-ab62-e644bdbc13ad}; !- Layer 4

OS:StandardsInformation:Construction,
  {cf78b6a9-3a68-4c6e-8eff-c3d83b779b9c}, !- Handle
  {65703696-4e3c-4a0c-8515-484759e6e076}, !- Construction Name
  ExteriorWall,                           !- Intended Surface Type
  Mass;                                   !- Standards Construction Type

OS:Construction,
  {9894151c-f4f2-4e72-8f69-ab314d2c6854}, !- Handle
  ASHRAE 189.1-2009 ExtWall Mass ClimateZone alt-res 4, !- Name
  ,                                       !- Surface Rendering Name
  {1d707571-9b83-47fa-b86b-9f325a85ebad}, !- Layer 1
  {f5778ae8-495b-4c3b-9dcd-e7db766226e6}, !- Layer 2
  {9d0c0d85-2cea-416b-adef-9d8c1625d71a}, !- Layer 3
  {06350974-e6d1-42b9-ab62-e644bdbc13ad}; !- Layer 4

OS:StandardsInformation:Construction,
  {5616dc22-292d-435f-b76c-df50e0715b1d}, !- Handle
  {9894151c-f4f2-4e72-8f69-ab314d2c6854}, !- Construction Name
  ExteriorWall,                           !- Intended Surface Type
  Mass;                                   !- Standards Construction Type

OS:Construction,
  {78793b8a-8db2-4d40-9304-30672064066a}, !- Handle
  ASHRAE 189.1-2009 ExtWall Mass ClimateZone alt-res 5, !- Name
  ,                                       !- Surface Rendering Name
  {1d707571-9b83-47fa-b86b-9f325a85ebad}, !- Layer 1
  {f5778ae8-495b-4c3b-9dcd-e7db766226e6}, !- Layer 2
  {4f8bfbcd-ac06-450f-94f2-8e28b6d0009f}, !- Layer 3
  {06350974-e6d1-42b9-ab62-e644bdbc13ad}; !- Layer 4

OS:StandardsInformation:Construction,
  {9a03fd8d-cbdd-450a-90b2-c11a890987ce}, !- Handle
  {78793b8a-8db2-4d40-9304-30672064066a}, !- Construction Name
  ExteriorWall,                           !- Intended Surface Type
  Mass;                                   !- Standards Construction Type

OS:Construction,
  {14cb0bff-047e-478b-b42c-d0c800103ec8}, !- Handle
  ASHRAE 189.1-2009 ExtWall Mass ClimateZone alt-res 6, !- Name
  ,                                       !- Surface Rendering Name
  {1d707571-9b83-47fa-b86b-9f325a85ebad}, !- Layer 1
  {f5778ae8-495b-4c3b-9dcd-e7db766226e6}, !- Layer 2
  {9bda72df-7645-4602-9cf8-516c9998f0e3}, !- Layer 3
  {06350974-e6d1-42b9-ab62-e644bdbc13ad}; !- Layer 4

OS:StandardsInformation:Construction,
  {43503f92-e48e-4311-8c4a-a760e7a44386}, !- Handle
  {14cb0bff-047e-478b-b42c-d0c800103ec8}, !- Construction Name
  ExteriorWall,                           !- Intended Surface Type
  Mass;                                   !- Standards Construction Type

OS:Construction,
  {30fd8eec-81e9-45c3-8ffc-2f59e92ebbdd}, !- Handle
  ASHRAE 189.1-2009 ExtWall Mass ClimateZone alt-res 7, !- Name
  ,                                       !- Surface Rendering Name
  {1d707571-9b83-47fa-b86b-9f325a85ebad}, !- Layer 1
  {f5778ae8-495b-4c3b-9dcd-e7db766226e6}, !- Layer 2
  {9bda72df-7645-4602-9cf8-516c9998f0e3}, !- Layer 3
  {06350974-e6d1-42b9-ab62-e644bdbc13ad}; !- Layer 4

OS:StandardsInformation:Construction,
  {75b0ba21-c67c-4915-85e7-347f0e198675}, !- Handle
  {30fd8eec-81e9-45c3-8ffc-2f59e92ebbdd}, !- Construction Name
  ExteriorWall,                           !- Intended Surface Type
  Mass;                                   !- Standards Construction Type

OS:Construction,
  {4d1dce88-23ad-4f6c-9c41-61d1d6e1b68d}, !- Handle
  ASHRAE 189.1-2009 ExtWall Mass ClimateZone alt-res 8, !- Name