
OS:Version,
  {6eeee793-9dd1-4619-bdcf-a6976a40f2b2}, !- Handle
  1.3.0;                                  !- Version Identifier

OS:Construction,
  {aee0eecb-9f85-4067-bd07-163f8e5223ab}, !- Handle
  ASHRAE 189.1-2009 AtticFloor ClimateZone 1-8, !- Name
  ,                                       !- Surface Rendering Name
  {127c2b3c-da35-4860-b429-523f33dac36e}, !- Layer 1
  {d742955f-bb2e-45ce-8472-d96deb892ddc}, !- Layer 2
  {127c2b3c-da35-4860-b429-523f33dac36e}; !- Layer 3

OS:StandardsInformation:Construction,
  {bc4f4bcd-5521-45d1-a0f3-f6b99fc1fb3d}, !- Handle
  {aee0eecb-9f85-4067-bd07-163f8e5223ab}, !- Construction Name
  AtticFloor,                             !- Intended Surface Type
  WoodFramed;                             !- Standards Construction Type

OS:Material,
  {127c2b3c-da35-4860-b429-523f33dac36e}, !- Handle
  1/2IN Gypsum,                           !- Name
  Smooth,                                 !- Roughness
  0.0127,                                 !- Thickness {m}
  0.16,                                   !- Conductivity {W/m-K}
  784.9,                                  !- Density {kg/m3}
  830.000000000001,                       !- Specific Heat {J/kg-K}
  0.9,                                    !- Thermal Absorptance
  0.92,                                   !- Solar Absorptance
  0.92;                                   !- Visible Absorptance

OS:Material,
  {d742955f-bb2e-45ce-8472-d96deb892ddc}, !- Handle
  AtticFloor Insulation,                  !- Name
  MediumRough,                            !- Roughness
  0.2379,                                 !- Thickness {m}
  0.049,                                  !- Conductivity {W/m-K}
  265,                                    !- Density {kg/m3}
  836.800000000001,                       !- Specific Heat {J/kg-K}
  0.9,                                    !- Thermal Absorptance
  0.7,                                    !- Solar Absorptance
  0.7;                                    !- Visible Absorptance

OS:Construction,
  {f65cee0b-53b0-46af-b4e4-f3a7785297e5}, !- Handle
  ASHRAE 189.1-2009 ExtRoof IEAD ClimateZone 1, !- Name
  ,                                       !- Surface Rendering Name
  {faf57303-287d-4a22-8281-4d3c7644ce33}, !- Layer 1
  {17b7f276-ee3d-471a-bf6c-7ebf1389bf77}, !- Layer 2
  {996ddd82-36b4-4992-a7b5-dfebb0eab20a}; !- Layer 3

OS:StandardsInformation:Construction,
  {287afcad-3176-497b-b6c5-d52a99b0ae24}, !- Handle
  {f65cee0b-53b0-46af-b4e4-f3a7785297e5}, !- Construction Name
  ExteriorRoof,                           !- Intended Surface Type
  IEAD;                                   !- Standards Construction Type

OS:Material,
  {faf57303-287d-4a22-8281-4d3c7644ce33}, !- Handle
  Roof Membrane,                          !- Name
  VeryRough,                              !- Roughness
  0.0095,                                 !- Thickness {m}
  0.16,                                   !- Conductivity {W/m-K}
  1121.29,                                !- Density {kg/m3}
  1460,                                   !- Specific Heat {J/kg-K}
  0.9,                                    !- Thermal Absorptance
  0.7,                                    !- Solar Absorptance
  0.7;                                    !- Visible Absorptance

OS:Material,
  {17b7f276-ee3d-471a-bf6c-7ebf1389bf77}, !- Handle
  Roof Insulation [18],                   !- Name
  MediumRough,                            !- Roughness
  0.1693,                                 !- Thickness {m}
  0.049,                                  !- Conductivity {W/m-K}
  265,                                    !- Density {kg/m3}
  836.800000000001,                       !- Specific Heat {J/kg-K}
  0.9,                                    !- Thermal Absorptance
  0.7,                                    !- Solar Absorptance
  0.7;                                    !- Visible Absorptance

OS:Material,
  {996ddd82-36b4-4992-a7b5-dfebb0eab20a}, !- Handle
  Metal Decking,                          !- Name
  MediumSmooth,                           !- Roughness
  0.0015,                                 !- Thickness {m}
  45.006,                                 !- Conductivity {W/m-K}
  7680,                                   !- Density {kg/m3}
  418.4,                                  !- Specific Heat {J/kg-K}
  0.9,                                    !- Thermal Absorptance
  0.7,                                    !- Solar Absorptance
  0.3;                                    !- Visible Absorptance

OS:Construction,
  {46eab762-11df-496f-9127-3ca470530501}, !- Handle
  ASHRAE 189.1-2009 ExtRoof IEAD ClimateZone 2-5, !- Name
  ,                                       !- Surface Rendering Name
  {faf57303-287d-4a22-8281-4d3c7644ce33}, !- Layer 1
  {2d180cfe-c980-47c0-9f36-a7140ea949d4}, !- Layer 2
  {996ddd82-36b4-4992-a7b5-dfebb0eab20a}; !- Layer 3

OS:StandardsInformation:Construction,
  {45cb0d56-80dc-48af-b630-fa447e12eae0}, !- Handle
  {46eab762-11df-496f-9127-3ca470530501}, !- Construction Name
  ExteriorRoof,                           !- Intended Surface Type
  IEAD;                                   !- Standards Construction Type

OS:Material,
  {2d180cfe-c980-47c0-9f36-a7140ea949d4}, !- Handle
  Roof Insulation [21],                   !- Name
  MediumRough,                            !- Roughness
  0.2105,                                 !- Thickness {m}
  0.049,                                  !- Conductivity {W/m-K}
  265,                                    !- Density {kg/m3}
  836.800000000001,                       !- Specific Heat {J/kg-K}
  0.9,                                    !- Thermal Absorptance
  0.7,                                    !- Solar Absorptance
  0.7;                                    !- Visible Absorptance

OS:Construction,
  {ce0a55d7-b212-48b5-a5bf-ed71899314de}, !- Handle
  ASHRAE 189.1-2009 ExtRoof IEAD ClimateZone 6, !- Name
  ,                                       !- Surface Rendering Name
  {faf57303-287d-4a22-8281-4d3c7644ce33}, !- Layer 1
  {87bb838a-6197-4102-a737-38cdd1ee258d}, !- Layer 2
  {996ddd82-36b4-4992-a7b5-dfebb0eab20a}; !- Layer 3

OS:StandardsInformation:Construction,
  {36c4f1f2-e0b0-4d6b-9ab9-18e2f6fb4559}, !- Handle
  {ce0a55d7-b212-48b5-a5bf-ed71899314de}, !- Construction Name
  ExteriorRoof,                           !- Intended Surface Type
  IEAD;                                   !- Standards Construction Type

OS:Material,
  {87bb838a-6197-4102-a737-38cdd1ee258d}, !- Handle
  Roof Insulation [24],                   !- Name
  MediumRough,                            !- Roughness
  0.260100000000001,                      !- Thickness {m}
  0.049,                                  !- Conductivity {W/m-K}
  265,                                    !- Density {kg/m3}
  836.800000000001,                       !- Specific Heat {J/kg-K}
  0.9,                                    !- Thermal Absorptance
  0.7,                                    !- Solar Absorptance
  0.7;                                    !- Visible Absorptance

OS:Construction,
  {ca0f8e9b-57a5-48df-b008-6937fc45f139}, !- Handle
  ASHRAE 189.1-2009 ExtRoof IEAD ClimateZone 7-8, !- Name
  ,                                       !- Surface Rendering Name
  {faf57303-287d-4a22-8281-4d3c7644ce33}, !- Layer 1
  {6703976a-a902-4faf-a4a9-4df851e352f8}, !- Layer 2
  {996ddd82-36b4-4992-a7b5-dfebb0eab20a}; !- Layer 3

OS:StandardsInformation:Construction,
  {7801a9da-a16d-4903-9614-29a6d30ffc2a}, !- Handle
  {ca0f8e9b-57a5-48df-b008-6937fc45f139}, !- Construction Name
  ExteriorRoof,                           !- Intended Surface Type
  IEAD;                                   !- Standards Construction Type

OS:Material,
  {6703976a-a902-4faf-a4a9-4df851e352f8}, !- Handle
  Roof Insulation [26],                   !- Name
  MediumRough,                            !- Roughness
  0.2941,                                 !- Thickness {m}
  0.049,                                  !- Conductivity {W/m-K}
  265,                                    !- Density {kg/m3}
  836.800000000001,                       !- Specific Heat {J/kg-K}
  0.9,                                    !- Thermal Absorptance
  0.7,                                    !- Solar Absorptance
  0.7;                                    !- Visible Absorptance

OS:Construction,
  {af2606c9-73c3-40ab-b5d6-e084b913dbc9}, !- Handle
  ASHRAE 189.1-2009 ExtRoof Metal ClimateZone 1, !- Name
  ,                                       !- Surface Rendering Name
  {fe47b197-2cfc-47bb-b383-aac1ceb482ad}, !- Layer 1
  {1da9e9b9-0ab1-4d9f-b977-4635e1869d11}; !- Layer 2

OS:StandardsInformation:Construction,
  {67a55d97-7765-4bad-a464-495b1e75eca1}, !- Handle
  {af2606c9-73c3-40ab-b5d6-e084b913dbc9}, !- Construction Name
  ExteriorRoof,                           !- Intended Surface Type
  Metal;                                  !- Standards Construction Type

OS:Material,
  {fe47b197-2cfc-47bb-b383-aac1ceb482ad}, !- Handle
  Metal Roofing,                          !- Name
  MediumSmooth,                           !- Roughness
  0.0015,                                 !- Thickness {m}
  45.006,                                 !- Conductivity {W/m-K}
  7680,                                   !- Density {kg/m3}
  418.4,                                  !- Specific Heat {J/kg-K}
  0.9,                                    !- Thermal Absorptance
  0.3,                                    !- Solar Absorptance
  0.3;                                    !- Visible Absorptance

OS:Material,
  {1da9e9b9-0ab1-4d9f-b977-4635e1869d11}, !- Handle
  Roof Insulation [19],                   !- Name
  MediumRough,                            !- Roughness
  0.1868,                                 !- Thickness {m}
  0.049,                                  !- Conductivity {W/m-K}
  265,                                    !- Density {kg/m3}
  836.800000000001,                       !- Specific Heat {J/kg-K}
  0.9,                                    !- Thermal Absorptance
  0.7,                                    !- Solar Absorptance
  0.7;                                    !- Visible Absorptance

OS:Construction,
  {66a561d2-8795-4b4f-85e9-bb1cd3ab8b4e}, !- Handle
  ASHRAE 189.1-2009 ExtRoof Metal ClimateZone 2-5, !- Name
  ,                                       !- Surface Rendering Name
  {fe47b197-2cfc-47bb-b383-aac1ceb482ad}, !- Layer 1
  {8d9cf115-1fcc-4d3f-aba7-6c2c1f454346}; !- Layer 2

OS:StandardsInformation:Construction,
  {375ee5c2-d82a-4792-bd8b-461c89c28c64}, !- Handle
  {66a561d2-8795-4b4f-85e9-bb1cd3ab8b4e}, !- Construction Name
  ExteriorRoof,                           !- Intended Surface Type
  Metal;                                  !- Standards Construction Type

OS:Material,
  {8d9cf115-1fcc-4d3f-aba7-6c2c1f454346}, !- Handle
  Roof Insulation [22],                   !- Name
  MediumRough,                            !- Roughness
  0.2358,                                 !- Thickness {m}
  0.049,                                  !- Conductivity {W/m-K}
  265,                                    !- Density {kg/m3}
  836.800000000001,                       !- Specific Heat {J/kg-K}
  0.9,                                    !- Thermal Absorptance
  0.7,                                    !- Solar Absorptance
  0.7;                                    !- Visible Absorptance

OS:Construction,
  {04e928f8-e2e2-48ed-8574-3426c1ff31ef}, !- Handle
  ASHRAE 189.1-2009 ExtRoof Metal ClimateZone 6, !- Name
  ,                                       !- Surface Rendering Name
  {fe47b197-2cfc-47bb-b383-aac1ceb482ad}, !- Layer 1
  {22e7eaf7-92f8-47c8-8877-cd5c69609c2f}; !- Layer 2

OS:StandardsInformation:Construction,
  {a0273f87-c943-415a-921a-d5f489e87c93}, !- Handle
  {04e928f8-e2e2-48ed-8574-3426c1ff31ef}, !- Construction Name
  ExteriorRoof,                           !- Intended Surface Type
  Metal;                                  !- Standards Construction Type

OS:Material,
  {22e7eaf7-92f8-47c8-8877-cd5c69609c2f}, !- Handle
  Roof Insulation [25],                   !- Name
  MediumRough,                            !- Roughness
  0.263,                                  !- Thickness {m}
  0.049,                                  !- Conductivity {W/m-K}
  265,                                    !- Density {kg/m3}
  836.800000000001,                       !- Specific Heat {J/kg-K}
  0.9,                                    !- Thermal Absorptance
  0.7,                                    !- Solar Absorptance
  0.7;                                    !- Visible Absorptance

OS:Construction,
  {3cab5bca-719d-44cd-bb0a-530670dd1fb8}, !- Handle
  ASHRAE 189.1-2009 ExtRoof Metal ClimateZone 7-8, !- Name
  ,                                       !- Surface Rendering Name
  {fe47b197-2cfc-47bb-b383-aac1ceb482ad}, !- Layer 1
  {1a352ea6-9e79-4161-835b-f28d6ef565de}; !- Layer 2

OS:StandardsInformation:Construction,
  {ab5e251d-a3c2-49a1-901d-a286d6e481aa}, !- Handle
  {3cab5bca-719d-44cd-bb0a-530670dd1fb8}, !- Construction Name
  ExteriorRoof,                           !- Intended Surface Type
  Metal;                                  !- Standards Construction Type

OS:Material,
  {1a352ea6-9e79-4161-835b-f28d6ef565de}, !- Handle
  Roof Insulation [27],                   !- Name
  MediumRough,                            !- Roughness
  0.297000000000001,                      !- Thickness {m}
  0.049,                                  !- Conductivity {W/m-K}
  265,                                    !- Density {kg/m3}
  836.800000000001,                       !- Specific Heat {J/kg-K}
  0.9,                                    !- Thermal Absorptance
  0.7,                                    !- Solar Absorptance
  0.7;                                    !- Visible Absorptance

OS:Construction,
  {762098b4-af4d-4cad-805e-9b8a52e0067d}, !- Handle
  ASHRAE 189.1-2009 ExtWall Mass ClimateZone 1, !- Name
  ,                                       !- Surface Rendering Name
  {2f0f47ca-19dc-4894-8588-f1e64c5c8d20}, !- Layer 1
  {273cbbc9-cc9b-49c2-b95f-9a0dddcc0904}, !- Layer 2
  {eaf39a5d-21c0-4b00-a2dc-e31aa0697ab6}, !- Layer 3
  {127c2b3c-da35-4860-b429-523f33dac36e}; !- Layer 4

OS:StandardsInformation:Construction,
  {bd1c2f11-a194-45b2-ba5a-ff9f3570d33b}, !- Handle
  {762098b4-af4d-4cad-805e-9b8a52e0067d}, !- Construction Name
  ExteriorWall,                           !- Intended Surface Type
  Mass;                                   !- Standards Construction Type

OS:Material,
  {2f0f47ca-19dc-4894-8588-f1e64c5c8d20}, !- Handle
  1IN Stucco,                             !- Name
  Smooth,                                 !- Roughness
  0.0253,                                 !- Thickness {m}
  0.691799999999999,                      !- Conductivity {W/m-K}
  1858,                                   !- Density {kg/m3}
  836.999999999999,                       !- Specific Heat {J/kg-K}
  0.9,                                    !- Thermal Absorptance
  0.92,                                   !- Solar Absorptance
  0.92;                                   !- Visible Absorptance

OS:Material,
  {273cbbc9-cc9b-49c2-b95f-9a0dddcc0904}, !- Handle
  8IN Concrete HW,                        !- Name
  MediumRough,                            !- Roughness
  0.2033,                                 !- Thickness {m}
  1.72959999999999,                       !- Conductivity {W/m-K}
  2242.99999999999,                       !- Density {kg/m3}
  836.999999999999,                       !- Specific Heat {J/kg-K}
  0.9,                                    !- Thermal Absorptance
  0.65,                                   !- Solar Absorptance
  0.65;                                   !- Visible Absorptance

OS:Material,
  {eaf39a5d-21c0-4b00-a2dc-e31aa0697ab6}, !- Handle
  Wall Insulation [31],                   !- Name
  MediumRough,                            !- Roughness
  0.0337000000000001,                     !- Thickness {m}
  0.0432,                                 !- Conductivity {W/m-K}
  91,                                     !- Density {kg/m3}
  836.999999999999,                       !- Specific Heat {J/kg-K}
  0.9,                                    !- Thermal Absorptance
  0.5,                                    !- Solar Absorptance
  0.5;                                    !- Visible Absorptance

OS:Construction,
  {c2ca00a5-503e-47d8-997b-1ce7f0c75729}, !- Handle
  ASHRAE 189.1-2009 ExtWall Mass ClimateZone 2, !- Name
  ,                                       !- Surface Rendering Name
  {2f0f47ca-19dc-4894-8588-f1e64c5c8d20}, !- Layer 1
  {273cbbc9-cc9b-49c2-b95f-9a0dddcc0904}, !- Layer 2
  {8c85bf58-f131-4cd8-82c7-aceb0f79e7fc}, !- Layer 3
  {127c2b3c-da35-4860-b429-523f33dac36e}; !- Layer 4

OS:StandardsInformation:Construction,
  {7a4996c8-bbd2-43fd-9273-010edc3202d5}, !- Handle
  {c2ca00a5-503e-47d8-997b-1ce7f0c75729}, !- Construction Name
  ExteriorWall,                           !- Intended Surface Type
  Mass;                                   !- Standards Construction Type

OS:Material,
  {8c85bf58-f131-4cd8-82c7-aceb0f79e7fc}, !- Handle
  Wall Insulation [35],                   !- Name
  MediumRough,                            !- Roughness
  0.0452,                                 !- Thickness {m}
  0.0432,                                 !- Conductivity {W/m-K}
  91,                                     !- Density {kg/m3}
  836.999999999999,                       !- Specific Heat {J/kg-K}
  0.9,                                    !- Thermal Absorptance
  0.5,                                    !- Solar Absorptance
  0.5;                                    !- Visible Absorptance

OS:Construction,
  {586c6def-f962-4723-af5f-177d9cab6264}, !- Handle
  ASHRAE 189.1-2009 ExtWall Mass ClimateZone 3, !- Name
  ,                                       !- Surface Rendering Name
  {2f0f47ca-19dc-4894-8588-f1e64c5c8d20}, !- Layer 1
  {273cbbc9-cc9b-49c2-b95f-9a0dddcc0904}, !- Layer 2
  {d303a80c-e45d-48f6-8d21-de27655341dd}, !- Layer 3
  {127c2b3c-da35-4860-b429-523f33dac36e}; !- Layer 4

OS:StandardsInformation:Construction,
  {c752d850-6820-4992-a186-480090cd0147}, !- Handle
  {586c6def-f962-4723-af5f-177d9cab6264}, !- Construction Name
  ExteriorWall,                           !- Intended Surface Type
  Mass;                                   !- Standards Construction Type

OS:Material,
  {d303a80c-e45d-48f6-8d21-de27655341dd}, !- Handle
  Wall Insulation [36],                   !- Name
  MediumRough,                            !- Roughness
  0.0565999999999999,                     !- Thickness {m}
  0.0432,                                 !- Conductivity {W/m-K}
  91,                                     !- Density {kg/m3}
  836.999999999999,                       !- Specific Heat {J/kg-K}
  0.9,                                    !- Thermal Absorptance
  0.5,                                    !- Solar Absorptance
  0.5;                                    !- Visible Absorptance

OS:Construction,
  {23d8cec9-78ec-4250-8df4-8f8148d16669}, !- Handle
  ASHRAE 189.1-2009 ExtWall Mass ClimateZone 4, !- Name
  ,                                       !- Surface Rendering Name
  {2f0f47ca-19dc-4894-8588-f1e64c5c8d20}, !- Layer 1
  {273cbbc9-cc9b-49c2-b95f-9a0dddcc0904}, !- Layer 2
  {770a013e-7b1f-434a-a73b-8dc1a817ed0b}, !- Layer 3
  {127c2b3c-da35-4860-b429-523f33dac36e}; !- Layer 4

OS:StandardsInformation:Construction,
  {7bc33fbb-54fa-4184-8af4-c9730e3e7393}, !- Handle
  {23d8cec9-78ec-4250-8df4-8f8148d16669}, !- Construction Name
  ExteriorWall,                           !- Intended Surface Type
  Mass;                                   !- Standards Construction Type

OS:Material,
  {770a013e-7b1f-434a-a73b-8dc1a817ed0b}, !- Handle
  Wall Insulation [37],                   !- Name
  MediumRough,                            !- Roughness
  0.0680999999999999,                     !- Thickness {m}
  0.0432,                                 !- Conductivity {W/m-K}
  91,                                     !- Density {kg/m3}
  836.999999999999,                       !- Specific Heat {J/kg-K}
  0.9,                                    !- Thermal Absorptance
  0.5,                                    !- Solar Absorptance
  0.5;                                    !- Visible Absorptance

OS:Construction,
  {b840014e-0bf7-4c87-8f26-d94774d6fa9d}, !- Handle
  ASHRAE 189.1-2009 ExtWall Mass ClimateZone 5, !- Name
  ,                                       !- Surface Rendering Name
  {2f0f47ca-19dc-4894-8588-f1e64c5c8d20}, !- Layer 1
  {273cbbc9-cc9b-49c2-b95f-9a0dddcc0904}, !- Layer 2
  {1b9c7e34-0c41-4b59-a7c1-c220859d441c}, !- Layer 3
  {127c2b3c-da35-4860-b429-523f33dac36e}; !- Layer 4

OS:StandardsInformation:Construction,
  {e3273999-453e-422b-8a6c-f05314ac3e5b}, !- Handle
  {b840014e-0bf7-4c87-8f26-d94774d6fa9d}, !- Construction Name
  ExteriorWall,                           !- Intended Surface Type
  Mass;                                   !- Standards Construction Type

OS:Material,
  {1b9c7e34-0c41-4b59-a7c1-c220859d441c}, !- Handle
  Wall Insulation [40],                   !- Name
  MediumRough,                            !- Roughness
  0.0793999999999999,                     !- Thickness {m}
  0.0432,                                 !- Conductivity {W/m-K}
  91,                                     !- Density {kg/m3}
  836.999999999999,                       !- Specific Heat {J/kg-K}
  0.9,                                    !- Thermal Absorptance
  0.5,                                    !- Solar Absorptance
  0.5;                                    !- Visible Absorptance

OS:Construction,
  {2b4ff24a-d395-485f-9326-5deec690cbac}, !- Handle
  ASHRAE 189.1-2009 ExtWall Mass ClimateZone 6, !- Name
  ,                                       !- Surface Rendering Name
  {2f0f47ca-19dc-4894-8588-f1e64c5c8d20}, !- Layer 1
  {273cbbc9-cc9b-49c2-b95f-9a0dddcc0904}, !- Layer 2
  {54aa7622-e09d-4e67-8e28-5f70fe6ef5b6}, !- Layer 3
  {127c2b3c-da35-4860-b429-523f33dac36e}; !- Layer 4

OS:StandardsInformation:Construction,
  {aef3a6a5-2470-4206-a54f-035dcb111e7e}, !- Handle
  {2b4ff24a-d395-485f-9326-5deec690cbac}, !- Construction Name
  ExteriorWall,                           !- Intended Surface Type
  Mass;                                   !- Standards Construction Type

OS:Material,
  {54aa7622-e09d-4e67-8e28-5f70fe6ef5b6}, !- Handle
  Wall Insulation [42],                   !- Name
  MediumRough,                            !- Roughness
  0.0913999999999999,                     !- Thickness {m}
  0.0432,                                 !- Conductivity {W/m-K}
  91,                                     !- Density {kg/m3}
  836.999999999999,                       !- Specific Heat {J/kg-K}
  0.9,                                    !- Thermal Absorptance
  0.5,                                    !- Solar Absorptance
  0.5;                                    !- Visible Absorptance

OS:Construction,
  {bc25c53a-b5d6-4fb5-a24c-156ca3927d36}, !- Handle
  ASHRAE 189.1-2009 ExtWall Mass ClimateZone 7-8, !- Name
  ,                                       !- Surface Rendering Name
  {2f0f47ca-19dc-4894-8588-f1e64c5c8d20}, !- Layer 1
  {273cbbc9-cc9b-49c2-b95f-9a0dddcc0904}, !- Layer 2
  {3ecf7c2e-9e61-40f3-a9f1-dbe1e075d39a}, !- Layer 3
  {127c2b3c-da35-4860-b429-523f33dac36e}; !- Layer 4

OS:StandardsInformation:Construction,
  {9dcf0029-4bb3-461e-8be8-3dae224dd3bd}, !- Handle
  {bc25c53a-b5d6-4fb5-a24c-156ca3927d36}, !- Construction Name
  ExteriorWall,                           !- Intended Surface Type
  Mass;                                   !- Standards Construction Type

OS:Material,
  {3ecf7c2e-9e61-40f3-a9f1-dbe1e075d39a}, !- Handle
  Wall Insulation [44],                   !- Name
  MediumRough,                            !- Roughness
  0.1104,                                 !- Thickness {m}
  0.0432,                                 !- Conductivity {W/m-K}
  91,                                     !- Density {kg/m3}
  836.999999999999,                       !- Specific Heat {J/kg-K}
  0.9,                                    !- Thermal Absorptance
  0.5,                                    !- Solar Absorptance
  0.5;                                    !- Visible Absorptance

OS:Construction,
  {c6782d55-6a55-40d8-9c1b-d0d1b19d8bab}, !- Handle
  ASHRAE 189.1-2009 ExtWall Mass ClimateZone alt-res 1, !- Name
  ,                                       !- Surface Rendering Name
  {2f0f47ca-19dc-4894-8588-f1e64c5c8d20}, !- Layer 1
  {273cbbc9-cc9b-49c2-b95f-9a0dddcc0904}, !- Layer 2
  {8c85bf58-f131-4cd8-82c7-aceb0f79e7fc}, !- Layer 3
  {127c2b3c-da35-4860-b429-523f33dac36e}; !- Layer 4

OS:StandardsInformation:Construction,
  {9fa7b6f0-1f37-4e4c-9a4a-a060fd8889cc}, !- Handle
  {c6782d55-6a55-40d8-9c1b-d0d1b19d8bab}, !- Construction Name
  ExteriorWall,                           !- Intended Surface Type
  Mass;                                   !- Standards Construction Type

OS:Construction,
  {d4ffef9c-f6f6-4d87-a5d5-0b4c18c51ad0}, !- Handle
  ASHRAE 189.1-2009 ExtWall Mass ClimateZone alt-res 2, !- Name
  ,                                       !- Surface Rendering Name
  {2f0f47ca-19dc-4894-8588-f1e64c5c8d20}, !- Layer 1
  {273cbbc9-cc9b-49c2-b95f-9a0dddcc0904}, !- Layer 2
  {d303a80c-e45d-48f6-8d21-de27655341dd}, !- Layer 3
  {127c2b3c-da35-4860-b429-523f33dac36e}; !- Layer 4

OS:StandardsInformation:Construction,
  {fa1e0680-baf0-4faa-8c68-cd8cfbb6a542}, !- Handle
  {d4ffef9c-f6f6-4d87-a5d5-0b4c18c51ad0}, !- Construction Name
  ExteriorWall,                           !- Intended Surface Type
  Mass;                                   !- Standards Construction Type

OS:Construction,
  {55961a80-fe3c-42f9-9ed1-f1cef5784ad0}, !- Handle
  ASHRAE 189.1-2009 ExtWall Mass ClimateZone alt-res 3, !- Name
  ,                                       !- Surface Rendering Name
  {2f0f47ca-19dc-4894-8588-f1e64c5c8d20}, !- Layer 1
  {273cbbc9-cc9b-49c2-b95f-9a0dddcc0904}, !- Layer 2
  {770a013e-7b1f-434a-a73b-8dc1a817ed0b}, !- Layer 3
  {127c2b3c-da35-4860-b429-523f33dac36e}; !- Layer 4

OS:StandardsInformation:Construction,
  {00b16e70-5611-4ddc-ae57-1abfdd29848b}, !- Handle
  {55961a80-fe3c-42f9-9ed1-f1cef5784ad0}, !- Construction Name
  ExteriorWall,                           !- Intended Surface Type
  Mass;                                   !- Standards Construction Type

OS:Construction,
  {4c844442-0121-4980-afa2-05c63e6843fc}, !- Handle
  ASHRAE 189.1-2009 ExtWall Mass ClimateZone alt-res 4, !- Name
  ,                                       !- Surface Rendering Name
  {2f0f47ca-19dc-4894-8588-f1e64c5c8d20}, !- Layer 1
  {273cbbc9-cc9b-49c2-b95f-9a0dddcc0904}, !- Layer 2
  {1b9c7e34-0c41-4b59-a7c1-c220859d441c}, !- Layer 3
  {127c2b3c-da35-4860-b429-523f33dac36e}; !- Layer 4

OS:StandardsInformation:Construction,
  {a2fc0f19-9f20-40a8-8c99-0ecf1355058a}, !- Handle
  {4c844442-0121-4980-afa2-05c63e6843fc}, !- Construction Name
  ExteriorWall,                           !- Intended Surface Type
  Mass;                                   !- Standards Construction Type

OS:Construction,
  {2aab3935-6243-44d5-9e81-5e45522775a2}, !- Handle
  ASHRAE 189.1-2009 ExtWall Mass ClimateZone alt-res 5, !- Name
  ,                                       !- Surface Rendering Name
  {2f0f47ca-19dc-4894-8588-f1e64c5c8d20}, !- Layer 1
  {273cbbc9-cc9b-49c2-b95f-9a0dddcc0904}, !- Layer 2
  {54aa7622-e09d-4e67-8e28-5f70fe6ef5b6}, !- Layer 3
  {127c2b3c-da35-4860-b429-523f33dac36e}; !- Layer 4

OS:StandardsInformation:Construction,
  {11279764-bb65-4de6-9a88-18548d9328b0}, !- Handle
  {2aab3935-6243-44d5-9e81-5e45522775a2}, !- Construction Name
  ExteriorWall,                           !- Intended Surface Type
  Mass;                                   !- Standards Construction Type

OS:Construction,
  {a459ec4d-e288-474f-bfa0-12f26168de32}, !- Handle
  ASHRAE 189.1-2009 ExtWall Mass ClimateZone alt-res 6, !- Name
  ,                                       !- Surface Rendering Name
  {2f0f47ca-19dc-4894-8588-f1e64c5c8d20}, !- Layer 1
  {273cbbc9-cc9b-49c2-b95f-9a0dddcc0904}, !- Layer 2
  {3ecf7c2e-9e61-40f3-a9f1-dbe1e075d39a}, !- Layer 3
  {127c2b3c-da35-4860-b429-523f33dac36e}; !- Layer 4

OS:StandardsInformation:Construction,
  {b9bb3658-4f83-4276-a591-f6c391a2fe3e}, !- Handle
  {a459ec4d-e288-474f-bfa0-12f26168de32}, !- Construction Name
  ExteriorWall,                           !- Intended Surface Type
  Mass;                                   !- Standards Construction Type

OS:Construction,
  {e176a486-e684-4b56-bc9b-3464beb11298}, !- Handle
  ASHRAE 189.1-2009 ExtWall Mass ClimateZone alt-res 7, !- Name
  ,                                       !- Surface Rendering Name
  {2f0f47ca-19dc-4894-8588-f1e64c5c8d20}, !- Layer 1
  {273cbbc9-cc9b-49c2-b95f-9a0dddcc0904}, !- Layer 2
  {3ecf7c2e-9e61-40f3-a9f1-dbe1e075d39a}, !- Layer 3
  {127c2b3c-da35-4860-b429-523f33dac36e}; !- Layer 4

OS:StandardsInformation:Construction,
  {ef5d5880-50c9-4e66-855d-e7226bc82964}, !- Handle
  {e176a486-e684-4b56-bc9b-3464beb11298}, !- Construction Name
  ExteriorWall,                           !- Intended Surface Type
  Mass;                                   !- Standards Construction Type

OS:Construction,
  {c3768393-8772-4ebe-ad47-23d3d1ca87f9}, !- Handle
  ASHRAE 189.1-2009 ExtWall Mass ClimateZone alt-res 8, !- Name