
OS:Version,
  {fdb06d6e-5c16-43f6-a331-a6fc2bb4ecd8}, !- Handle
  1.4.0;                                  !- Version Identifier

OS:Construction,
  {ee93599c-e79e-49ce-8261-179b3b1e6867}, !- Handle
  ASHRAE 189.1-2009 AtticFloor ClimateZone 1-8, !- Name
  ,                                       !- Surface Rendering Name
  {f05e5933-b229-447d-ba00-cf9c75c28a6a}, !- Layer 1
  {e7e52f32-1b66-4d79-a144-1a879a5d4f8a}, !- Layer 2
  {f05e5933-b229-447d-ba00-cf9c75c28a6a}; !- Layer 3

OS:StandardsInformation:Construction,
  {ff815b26-cd16-42fa-91a4-341fa97cc5cf}, !- Handle
  {ee93599c-e79e-49ce-8261-179b3b1e6867}, !- Construction Name
  AtticFloor,                             !- Intended Surface Type
  WoodFramed;                             !- Standards Construction Type

OS:Material,
  {f05e5933-b229-447d-ba00-cf9c75c28a6a}, !- Handle
  1/2IN Gypsum,                           !- Name
  Smooth,                                 !- Roughness
  0.0127,                                 !- Thickness {m}
  0.16,                                   !- Conductivity {W/m-K}
  784.9,                                  !- Density {kg/m3}
  830.000000000001,                       !- Specific Heat {J/kg-K}
  0.9,                                    !- Thermal Absorptance
  0.4,                                    !- Solar Absorptance
  0.4;                                    !- Visible Absorptance

OS:Material,
  {e7e52f32-1b66-4d79-a144-1a879a5d4f8a}, !- Handle
  AtticFloor Insulation,                  !- Name
  MediumRough,                            !- Roughness
  0.2379,                                 !- Thickness {m}
  0.049,                                  !- Conductivity {W/m-K}
  265,                                    !- Density {kg/m3}
  836.800000000001,                       !- Specific Heat {J/kg-K}
  0.9,                                    !- Thermal Absorptance
  0.7,                                    !- Solar Absorptance
  0.7;                                    !- Visible Absorptance

OS:Construction,
  {99bf9324-bb50-43a9-842f-0e3ed0ee1578}, !- Handle
  ASHRAE 189.1-2009 ExtRoof IEAD ClimateZone 1, !- Name
  ,                                       !- Surface Rendering Name
  {0da25ba4-c60f-4335-a7f8-d880fafb4363}, !- Layer 1
  {df100a3c-6617-4e88-893c-841d5cef8155}, !- Layer 2
  {9c747fd2-9940-422b-9730-19c7c30c2c2e}; !- Layer 3

OS:StandardsInformation:Construction,
  {ebda6db6-4310-4125-9af0-fb37235f7f0d}, !- Handle
  {99bf9324-bb50-43a9-842f-0e3ed0ee1578}, !- Construction Name
  ExteriorRoof,                           !- Intended Surface Type
  IEAD;                                   !- Standards Construction Type

OS:Material,
  {0da25ba4-c60f-4335-a7f8-d880fafb4363}, !- Handle
  Roof Membrane,                          !- Name
  VeryRough,                              !- Roughness
  0.0095,                                 !- Thickness {m}
  0.16,                                   !- Conductivity {W/m-K}
  1121.29,                                !- Density {kg/m3}
  1460,                                   !- Specific Heat {J/kg-K}
  0.9,                                    !- Thermal Absorptance
  0.7,                                    !- Solar Absorptance
  0.7;                                    !- Visible Absorptance

OS:Material,
  {df100a3c-6617-4e88-893c-841d5cef8155}, !- Handle
  Roof Insulation [18],                   !- Name
  MediumRough,                            !- Roughness
  0.1693,                                 !- Thickness {m}
  0.049,                                  !- Conductivity {W/m-K}
  265,                                    !- Density {kg/m3}
  836.800000000001,                       !- Specific Heat {J/kg-K}
  0.9,                                    !- Thermal Absorptance
  0.7,                                    !- Solar Absorptance
  0.7;                                    !- Visible Absorptance

OS:Material,
  {9c747fd2-9940-422b-9730-19c7c30c2c2e}, !- Handle
  Metal Decking,                          !- Name
  MediumSmooth,                           !- Roughness
  0.0015,                                 !- Thickness {m}
  45.006,                                 !- Conductivity {W/m-K}
  7680,                                   !- Density {kg/m3}
  418.4,                                  !- Specific Heat {J/kg-K}
  0.9,                                    !- Thermal Absorptance
  0.6,                                    !- Solar Absorptance
  0.6;                                    !- Visible Absorptance

OS:Construction,
  {e9333fd8-9a19-4f84-8867-c4941c763570}, !- Handle
  ASHRAE 189.1-2009 ExtRoof IEAD ClimateZone 2-5, !- Name
  ,                                       !- Surface Rendering Name
  {0da25ba4-c60f-4335-a7f8-d880fafb4363}, !- Layer 1
  {9910549c-5ab0-4fdf-8c70-58b6ce2c19b9}, !- Layer 2
  {9c747fd2-9940-422b-9730-19c7c30c2c2e}; !- Layer 3

OS:StandardsInformation:Construction,
  {6b3ddd34-3113-4b8c-9b28-0a525f0434cc}, !- Handle
  {e9333fd8-9a19-4f84-8867-c4941c763570}, !- Construction Name
  ExteriorRoof,                           !- Intended Surface Type
  IEAD;                                   !- Standards Construction Type

OS:Material,
  {9910549c-5ab0-4fdf-8c70-58b6ce2c19b9}, !- Handle
  Roof Insulation [21],                   !- Name
  MediumRough,                            !- Roughness
  0.2105,                                 !- Thickness {m}
  0.049,                                  !- Conductivity {W/m-K}
  265,                                    !- Density {kg/m3}
  836.800000000001,                       !- Specific Heat {J/kg-K}
  0.9,                                    !- Thermal Absorptance
  0.7,                                    !- Solar Absorptance
  0.7;                                    !- Visible Absorptance

OS:Construction,
  {121e3449-e939-4922-90a1-0a0357cbbe11}, !- Handle
  ASHRAE 189.1-2009 ExtRoof IEAD ClimateZone 6, !- Name
  ,                                       !- Surface Rendering Name
  {0da25ba4-c60f-4335-a7f8-d880fafb4363}, !- Layer 1
  {3cd9b04e-4703-47b5-8b10-a211940b6d77}, !- Layer 2
  {9c747fd2-9940-422b-9730-19c7c30c2c2e}; !- Layer 3

OS:StandardsInformation:Construction,
  {428a0e10-b727-4bd8-b28e-f92189a2307f}, !- Handle
  {121e3449-e939-4922-90a1-0a0357cbbe11}, !- Construction Name
  ExteriorRoof,                           !- Intended Surface Type
  IEAD;                                   !- Standards Construction Type

OS:Material,
  {3cd9b04e-4703-47b5-8b10-a211940b6d77}, !- Handle
  Roof Insulation [24],                   !- Name
  MediumRough,                            !- Roughness
  0.260100000000001,                      !- Thickness {m}
  0.049,                                  !- Conductivity {W/m-K}
  265,                                    !- Density {kg/m3}
  836.800000000001,                       !- Specific Heat {J/kg-K}
  0.9,                                    !- Thermal Absorptance
  0.7,                                    !- Solar Absorptance
  0.7;                                    !- Visible Absorptance

OS:Construction,
  {7524e26a-2e9c-414a-b527-3d1559ef7d51}, !- Handle
  ASHRAE 189.1-2009 ExtRoof IEAD ClimateZone 7-8, !- Name
  ,                                       !- Surface Rendering Name
  {0da25ba4-c60f-4335-a7f8-d880fafb4363}, !- Layer 1
  {7082d6f9-a2eb-4258-931f-6400f7df774f}, !- Layer 2
  {9c747fd2-9940-422b-9730-19c7c30c2c2e}; !- Layer 3

OS:StandardsInformation:Construction,
  {f07f3608-9e46-48ef-805b-5f67b905f1d7}, !- Handle
  {7524e26a-2e9c-414a-b527-3d1559ef7d51}, !- Construction Name
  ExteriorRoof,                           !- Intended Surface Type
  IEAD;                                   !- Standards Construction Type

OS:Material,
  {7082d6f9-a2eb-4258-931f-6400f7df774f}, !- Handle
  Roof Insulation [26],                   !- Name
  MediumRough,                            !- Roughness
  0.2941,                                 !- Thickness {m}
  0.049,                                  !- Conductivity {W/m-K}
  265,                                    !- Density {kg/m3}
  836.800000000001,                       !- Specific Heat {J/kg-K}
  0.9,                                    !- Thermal Absorptance
  0.7,                                    !- Solar Absorptance
  0.7;                                    !- Visible Absorptance

OS:Construction,
  {7a7ef0c1-9d0a-4d83-a573-4c52d5a955d3}, !- Handle
  ASHRAE 189.1-2009 ExtRoof Metal ClimateZone 1, !- Name
  ,                                       !- Surface Rendering Name
  {d4e31808-2988-421f-832b-62f49af8a1c2}, !- Layer 1
  {f6c41de9-56f6-416e-b237-d65057f3c7fe}, !- Layer 2
  {9c747fd2-9940-422b-9730-19c7c30c2c2e}; !- Layer 3

OS:StandardsInformation:Construction,
  {521b8aa2-d090-436c-9997-f6ad3c3fbf08}, !- Handle
  {7a7ef0c1-9d0a-4d83-a573-4c52d5a955d3}, !- Construction Name
  ExteriorRoof,                           !- Intended Surface Type
  Metal;                                  !- Standards Construction Type

OS:Material,
  {d4e31808-2988-421f-832b-62f49af8a1c2}, !- Handle
  Metal Roofing,                          !- Name
  MediumSmooth,                           !- Roughness
  0.0015,                                 !- Thickness {m}
  45.006,                                 !- Conductivity {W/m-K}
  7680,                                   !- Density {kg/m3}
  418.4,                                  !- Specific Heat {J/kg-K}
  0.9,                                    !- Thermal Absorptance
  0.6,                                    !- Solar Absorptance
  0.6;                                    !- Visible Absorptance

OS:Material,
  {f6c41de9-56f6-416e-b237-d65057f3c7fe}, !- Handle
  Roof Insulation [19],                   !- Name
  MediumRough,                            !- Roughness
  0.1868,                                 !- Thickness {m}
  0.049,                                  !- Conductivity {W/m-K}
  265,                                    !- Density {kg/m3}
  836.800000000001,                       !- Specific Heat {J/kg-K}
  0.9,                                    !- Thermal Absorptance
  0.7,                                    !- Solar Absorptance
  0.7;                                    !- Visible Absorptance

OS:Construction,
  {8484da7a-d7d3-4a6f-9dd4-05ce204ae4b1}, !- Handle
  ASHRAE 189.1-2009 ExtRoof Metal ClimateZone 2-5, !- Name
  ,                                       !- Surface Rendering Name
  {d4e31808-2988-421f-832b-62f49af8a1c2}, !- Layer 1
  {04f51b7b-6a9a-4bbe-a15c-91ca696884ee}, !- Layer 2
  {9c747fd2-9940-422b-9730-19c7c30c2c2e}; !- Layer 3

OS:StandardsInformation:Construction,
  {b40f677c-6c12-4483-a4c2-f99b5240a62d}, !- Handle
  {8484da7a-d7d3-4a6f-9dd4-05ce204ae4b1}, !- Construction Name
  ExteriorRoof,                           !- Intended Surface Type
  Metal;                                  !- Standards Construction Type

OS:Material,
  {04f51b7b-6a9a-4bbe-a15c-91ca696884ee}, !- Handle
  Roof Insulation [22],                   !- Name
  MediumRough,                            !- Roughness
  0.2358,                                 !- Thickness {m}
  0.049,                                  !- Conductivity {W/m-K}
  265,                                    !- Density {kg/m3}
  836.800000000001,                       !- Specific Heat {J/kg-K}
  0.9,                                    !- Thermal Absorptance
  0.7,                                    !- Solar Absorptance
  0.7;                                    !- Visible Absorptance

OS:Construction,
  {ae5e979c-87dc-4499-9a3b-c3a30f65c2ee}, !- Handle
  ASHRAE 189.1-2009 ExtRoof Metal ClimateZone 6, !- Name
  ,                                       !- Surface Rendering Name
  {d4e31808-2988-421f-832b-62f49af8a1c2}, !- Layer 1
  {1d4955c7-6738-414b-8122-499fdd51f29d}, !- Layer 2
  {9c747fd2-9940-422b-9730-19c7c30c2c2e}; !- Layer 3

OS:StandardsInformation:Construction,
  {04d23b67-7d47-415f-8568-fec71e8022a6}, !- Handle
  {ae5e979c-87dc-4499-9a3b-c3a30f65c2ee}, !- Construction Name
  ExteriorRoof,                           !- Intended Surface Type
  Metal;                                  !- Standards Construction Type

OS:Material,
  {1d4955c7-6738-414b-8122-499fdd51f29d}, !- Handle
  Roof Insulation [25],                   !- Name
  MediumRough,                            !- Roughness
  0.263,                                  !- Thickness {m}
  0.049,                                  !- Conductivity {W/m-K}
  265,                                    !- Density {kg/m3}
  836.800000000001,                       !- Specific Heat {J/kg-K}
  0.9,                                    !- Thermal Absorptance
  0.7,                                    !- Solar Absorptance
  0.7;                                    !- Visible Absorptance

OS:Construction,
  {065cfe73-304b-4d2e-b8ab-2669546a2aa9}, !- Handle
  ASHRAE 189.1-2009 ExtRoof Metal ClimateZone 7-8, !- Name
  ,                                       !- Surface Rendering Name
  {d4e31808-2988-421f-832b-62f49af8a1c2}, !- Layer 1
  {c5e16480-53f7-4062-909f-2069bf914ee7}, !- Layer 2
  {9c747fd2-9940-422b-9730-19c7c30c2c2e}; !- Layer 3

OS:StandardsInformation:Construction,
  {a25e9a6e-d1d1-4d4f-bb65-1eb10ec95864}, !- Handle
  {065cfe73-304b-4d2e-b8ab-2669546a2aa9}, !- Construction Name
  ExteriorRoof,                           !- Intended Surface Type
  Metal;                                  !- Standards Construction Type

OS:Material,
  {c5e16480-53f7-4062-909f-2069bf914ee7}, !- Handle
  Roof Insulation [27],                   !- Name
  MediumRough,                            !- Roughness
  0.297000000000001,                      !- Thickness {m}
  0.049,                                  !- Conductivity {W/m-K}
  265,                                    !- Density {kg/m3}
  836.800000000001,                       !- Specific Heat {J/kg-K}
  0.9,                                    !- Thermal Absorptance
  0.7,                                    !- Solar Absorptance
  0.7;                                    !- Visible Absorptance

OS:Construction,
  {ac95e8a0-e8e6-4b55-9cba-ec1012f28a82}, !- Handle
  ASHRAE 189.1-2009 ExtWall Mass ClimateZone 1, !- Name
  ,                                       !- Surface Rendering Name
  {9400ffc5-b012-4dc9-a61f-9dade5865c7a}, !- Layer 1
  {86b1aa18-e503-4dc1-a18a-823f398eed83}, !- Layer 2
  {65694240-ac6c-4034-bbaf-f8a9b1b29e27}, !- Layer 3
  {f05e5933-b229-447d-ba00-cf9c75c28a6a}; !- Layer 4

OS:StandardsInformation:Construction,
  {9a53b7c6-d353-494b-b025-19996acf2371}, !- Handle
  {ac95e8a0-e8e6-4b55-9cba-ec1012f28a82}, !- Construction Name
  ExteriorWall,                           !- Intended Surface Type
  Mass;                                   !- Standards Construction Type

OS:Material,
  {9400ffc5-b012-4dc9-a61f-9dade5865c7a}, !- Handle
  1IN Stucco,                             !- Name
  Smooth,                                 !- Roughness
  0.0253,                                 !- Thickness {m}
  0.691799999999999,                      !- Conductivity {W/m-K}
  1858,                                   !- Density {kg/m3}
  836.999999999999,                       !- Specific Heat {J/kg-K}
  0.9,                                    !- Thermal Absorptance
  0.92,                                   !- Solar Absorptance
  0.92;                                   !- Visible Absorptance

OS:Material,
  {86b1aa18-e503-4dc1-a18a-823f398eed83}, !- Handle
  8IN Concrete HW,                        !- Name
  MediumRough,                            !- Roughness
  0.2033,                                 !- Thickness {m}
  1.72959999999999,                       !- Conductivity {W/m-K}
  2242.99999999999,                       !- Density {kg/m3}
  836.999999999999,                       !- Specific Heat {J/kg-K}
  0.9,                                    !- Thermal Absorptance
  0.65,                                   !- Solar Absorptance
  0.65;                                   !- Visible Absorptance

OS:Material,
  {65694240-ac6c-4034-bbaf-f8a9b1b29e27}, !- Handle
  Wall Insulation [31],                   !- Name
  MediumRough,                            !- Roughness
  0.0337000000000001,                     !- Thickness {m}
  0.0432,                                 !- Conductivity {W/m-K}
  91,                                     !- Density {kg/m3}
  836.999999999999,                       !- Specific Heat {J/kg-K}
  0.9,                                    !- Thermal Absorptance
  0.5,                                    !- Solar Absorptance
  0.5;                                    !- Visible Absorptance

OS:Construction,
  {0e4a5cd7-6405-4c1f-a61b-5f95de8f9a5b}, !- Handle
  ASHRAE 189.1-2009 ExtWall Mass ClimateZone 2, !- Name
  ,                                       !- Surface Rendering Name
  {9400ffc5-b012-4dc9-a61f-9dade5865c7a}, !- Layer 1
  {86b1aa18-e503-4dc1-a18a-823f398eed83}, !- Layer 2
  {1209161e-ccb5-4fb9-b3f9-8e79b59c43cd}, !- Layer 3
  {f05e5933-b229-447d-ba00-cf9c75c28a6a}; !- Layer 4

OS:StandardsInformation:Construction,
  {2087ee33-37a5-44c5-92a8-ff15eb6b37b7}, !- Handle
  {0e4a5cd7-6405-4c1f-a61b-5f95de8f9a5b}, !- Construction Name
  ExteriorWall,                           !- Intended Surface Type
  Mass;                                   !- Standards Construction Type

OS:Material,
  {1209161e-ccb5-4fb9-b3f9-8e79b59c43cd}, !- Handle
  Wall Insulation [35],                   !- Name
  MediumRough,                            !- Roughness
  0.0452,                                 !- Thickness {m}
  0.0432,                                 !- Conductivity {W/m-K}
  91,                                     !- Density {kg/m3}
  836.999999999999,                       !- Specific Heat {J/kg-K}
  0.9,                                    !- Thermal Absorptance
  0.5,                                    !- Solar Absorptance
  0.5;                                    !- Visible Absorptance

OS:Construction,
  {f990abb6-1716-4180-9f8a-e1118a50d335}, !- Handle
  ASHRAE 189.1-2009 ExtWall Mass ClimateZone 3, !- Name
  ,                                       !- Surface Rendering Name
  {9400ffc5-b012-4dc9-a61f-9dade5865c7a}, !- Layer 1
  {86b1aa18-e503-4dc1-a18a-823f398eed83}, !- Layer 2
  {39162b5d-88a1-46a9-b89b-88fada459938}, !- Layer 3
  {f05e5933-b229-447d-ba00-cf9c75c28a6a}; !- Layer 4

OS:StandardsInformation:Construction,
  {66c4b1cf-00e4-4f1f-b85a-3f7e736b60b7}, !- Handle
  {f990abb6-1716-4180-9f8a-e1118a50d335}, !- Construction Name
  ExteriorWall,                           !- Intended Surface Type
  Mass;                                   !- Standards Construction Type

OS:Material,
  {39162b5d-88a1-46a9-b89b-88fada459938}, !- Handle
  Wall Insulation [36],                   !- Name
  MediumRough,                            !- Roughness
  0.0565999999999999,                     !- Thickness {m}
  0.0432,                                 !- Conductivity {W/m-K}
  91,                                     !- Density {kg/m3}
  836.999999999999,                       !- Specific Heat {J/kg-K}
  0.9,                                    !- Thermal Absorptance
  0.5,                                    !- Solar Absorptance
  0.5;                                    !- Visible Absorptance

OS:Construction,
  {71a62600-98bd-4ea6-9b13-468b1b1b1882}, !- Handle
  ASHRAE 189.1-2009 ExtWall Mass ClimateZone 4, !- Name
  ,                                       !- Surface Rendering Name
  {9400ffc5-b012-4dc9-a61f-9dade5865c7a}, !- Layer 1
  {86b1aa18-e503-4dc1-a18a-823f398eed83}, !- Layer 2
  {e4d792dc-4020-48ae-8e62-187289b6fe44}, !- Layer 3
  {f05e5933-b229-447d-ba00-cf9c75c28a6a}; !- Layer 4

OS:StandardsInformation:Construction,
  {6023965a-2ec0-435b-838a-d053ba3ab358}, !- Handle
  {71a62600-98bd-4ea6-9b13-468b1b1b1882}, !- Construction Name
  ExteriorWall,                           !- Intended Surface Type
  Mass;                                   !- Standards Construction Type

OS:Material,
  {e4d792dc-4020-48ae-8e62-187289b6fe44}, !- Handle
  Wall Insulation [37],                   !- Name
  MediumRough,                            !- Roughness
  0.0680999999999999,                     !- Thickness {m}
  0.0432,                                 !- Conductivity {W/m-K}
  91,                                     !- Density {kg/m3}
  836.999999999999,                       !- Specific Heat {J/kg-K}
  0.9,                                    !- Thermal Absorptance
  0.5,                                    !- Solar Absorptance
  0.5;                                    !- Visible Absorptance

OS:Construction,
  {ac0e4ff7-6daf-4cce-94c3-e5965488dbed}, !- Handle
  ASHRAE 189.1-2009 ExtWall Mass ClimateZone 5, !- Name
  ,                                       !- Surface Rendering Name
  {9400ffc5-b012-4dc9-a61f-9dade5865c7a}, !- Layer 1
  {86b1aa18-e503-4dc1-a18a-823f398eed83}, !- Layer 2
  {a29c92bf-5f84-478f-a6b0-38bd9bafe4a2}, !- Layer 3
  {f05e5933-b229-447d-ba00-cf9c75c28a6a}; !- Layer 4

OS:StandardsInformation:Construction,
  {f9771be6-e14f-4112-a00c-f82b3d5a2bd3}, !- Handle
  {ac0e4ff7-6daf-4cce-94c3-e5965488dbed}, !- Construction Name
  ExteriorWall,                           !- Intended Surface Type
  Mass;                                   !- Standards Construction Type

OS:Material,
  {a29c92bf-5f84-478f-a6b0-38bd9bafe4a2}, !- Handle
  Wall Insulation [40],                   !- Name
  MediumRough,                            !- Roughness
  0.0793999999999999,                     !- Thickness {m}
  0.0432,                                 !- Conductivity {W/m-K}
  91,                                     !- Density {kg/m3}
  836.999999999999,                       !- Specific Heat {J/kg-K}
  0.9,                                    !- Thermal Absorptance
  0.5,                                    !- Solar Absorptance
  0.5;                                    !- Visible Absorptance

OS:Construction,
  {5526249f-8dbf-4b37-907e-de49137a8a5f}, !- Handle
  ASHRAE 189.1-2009 ExtWall Mass ClimateZone 6, !- Name
  ,                                       !- Surface Rendering Name
  {9400ffc5-b012-4dc9-a61f-9dade5865c7a}, !- Layer 1
  {86b1aa18-e503-4dc1-a18a-823f398eed83}, !- Layer 2
  {9f762c18-b76c-4b08-b567-d05521c1d8f4}, !- Layer 3
  {f05e5933-b229-447d-ba00-cf9c75c28a6a}; !- Layer 4

OS:StandardsInformation:Construction,
  {ead937dd-7ad3-48e0-b6e3-71c687786476}, !- Handle
  {5526249f-8dbf-4b37-907e-de49137a8a5f}, !- Construction Name
  ExteriorWall,                           !- Intended Surface Type
  Mass;                                   !- Standards Construction Type

OS:Material,
  {9f762c18-b76c-4b08-b567-d05521c1d8f4}, !- Handle
  Wall Insulation [42],                   !- Name
  MediumRough,                            !- Roughness
  0.0913999999999999,                     !- Thickness {m}
  0.0432,                                 !- Conductivity {W/m-K}
  91,                                     !- Density {kg/m3}
  836.999999999999,                       !- Specific Heat {J/kg-K}
  0.9,                                    !- Thermal Absorptance
  0.5,                                    !- Solar Absorptance
  0.5;                                    !- Visible Absorptance

OS:Construction,
  {9ce95bb8-c068-4037-a00d-923662d75dc0}, !- Handle
  ASHRAE 189.1-2009 ExtWall Mass ClimateZone 7-8, !- Name
  ,                                       !- Surface Rendering Name
  {9400ffc5-b012-4dc9-a61f-9dade5865c7a}, !- Layer 1
  {86b1aa18-e503-4dc1-a18a-823f398eed83}, !- Layer 2
  {c462f00c-598b-4659-ad13-4ce5d1436126}, !- Layer 3
  {f05e5933-b229-447d-ba00-cf9c75c28a6a}; !- Layer 4

OS:StandardsInformation:Construction,
  {bc40188b-9372-427b-b2ac-ff30cbfa7095}, !- Handle
  {9ce95bb8-c068-4037-a00d-923662d75dc0}, !- Construction Name
  ExteriorWall,                           !- Intended Surface Type
  Mass;                                   !- Standards Construction Type

OS:Material,
  {c462f00c-598b-4659-ad13-4ce5d1436126}, !- Handle
  Wall Insulation [44],                   !- Name
  MediumRough,                            !- Roughness
  0.1104,                                 !- Thickness {m}
  0.0432,                                 !- Conductivity {W/m-K}
  91,                                     !- Density {kg/m3}
  836.999999999999,                       !- Specific Heat {J/kg-K}
  0.9,                                    !- Thermal Absorptance
  0.5,                                    !- Solar Absorptance
  0.5;                                    !- Visible Absorptance

OS:Construction,
  {51c4258c-e598-48df-81ca-73694b6d5d6c}, !- Handle
  ASHRAE 189.1-2009 ExtWall Mass ClimateZone alt-res 1, !- Name
  ,                                       !- Surface Rendering Name
  {9400ffc5-b012-4dc9-a61f-9dade5865c7a}, !- Layer 1
  {86b1aa18-e503-4dc1-a18a-823f398eed83}, !- Layer 2
  {1209161e-ccb5-4fb9-b3f9-8e79b59c43cd}, !- Layer 3
  {f05e5933-b229-447d-ba00-cf9c75c28a6a}; !- Layer 4

OS:StandardsInformation:Construction,
  {eb884c8e-b2dc-4181-9b80-e6ce134be52e}, !- Handle
  {51c4258c-e598-48df-81ca-73694b6d5d6c}, !- Construction Name
  ExteriorWall,                           !- Intended Surface Type
  Mass;                                   !- Standards Construction Type

OS:Construction,
  {63fca58b-2336-407c-992c-7543fb5905b0}, !- Handle
  ASHRAE 189.1-2009 ExtWall Mass ClimateZone alt-res 2, !- Name
  ,                                       !- Surface Rendering Name
  {9400ffc5-b012-4dc9-a61f-9dade5865c7a}, !- Layer 1
  {86b1aa18-e503-4dc1-a18a-823f398eed83}, !- Layer 2
  {39162b5d-88a1-46a9-b89b-88fada459938}, !- Layer 3
  {f05e5933-b229-447d-ba00-cf9c75c28a6a}; !- Layer 4

OS:StandardsInformation:Construction,
  {291094f7-39c0-4886-b533-4250c80a74fd}, !- Handle
  {63fca58b-2336-407c-992c-7543fb5905b0}, !- Construction Name
  ExteriorWall,                           !- Intended Surface Type
  Mass;                                   !- Standards Construction Type

OS:Construction,
  {7160b12f-416a-40c8-adda-fa34dd863405}, !- Handle
  ASHRAE 189.1-2009 ExtWall Mass ClimateZone alt-res 3, !- Name
  ,                                       !- Surface Rendering Name
  {9400ffc5-b012-4dc9-a61f-9dade5865c7a}, !- Layer 1
  {86b1aa18-e503-4dc1-a18a-823f398eed83}, !- Layer 2
  {e4d792dc-4020-48ae-8e62-187289b6fe44}, !- Layer 3
  {f05e5933-b229-447d-ba00-cf9c75c28a6a}; !- Layer 4

OS:StandardsInformation:Construction,
  {b381e19b-2cd3-43f5-85f1-49bff1a0c696}, !- Handle
  {7160b12f-416a-40c8-adda-fa34dd863405}, !- Construction Name
  ExteriorWall,                           !- Intended Surface Type
  Mass;                                   !- Standards Construction Type

OS:Construction,
  {16677549-8cf1-44c4-a90f-12c87c1bd6d9}, !- Handle
  ASHRAE 189.1-2009 ExtWall Mass ClimateZone alt-res 4, !- Name
  ,                                       !- Surface Rendering Name
  {9400ffc5-b012-4dc9-a61f-9dade5865c7a}, !- Layer 1
  {86b1aa18-e503-4dc1-a18a-823f398eed83}, !- Layer 2
  {a29c92bf-5f84-478f-a6b0-38bd9bafe4a2}, !- Layer 3
  {f05e5933-b229-447d-ba00-cf9c75c28a6a}; !- Layer 4

OS:StandardsInformation:Construction,
  {4caa75ee-b8aa-48b3-8b79-29e83766b852}, !- Handle
  {16677549-8cf1-44c4-a90f-12c87c1bd6d9}, !- Construction Name
  ExteriorWall,                           !- Intended Surface Type
  Mass;                                   !- Standards Construction Type

OS:Construction,
  {6c17d9d7-baac-4761-8f65-38887bbd1977}, !- Handle
  ASHRAE 189.1-2009 ExtWall Mass ClimateZone alt-res 5, !- Name
  ,                                       !- Surface Rendering Name
  {9400ffc5-b012-4dc9-a61f-9dade5865c7a}, !- Layer 1
  {86b1aa18-e503-4dc1-a18a-823f398eed83}, !- Layer 2
  {9f762c18-b76c-4b08-b567-d05521c1d8f4}, !- Layer 3
  {f05e5933-b229-447d-ba00-cf9c75c28a6a}; !- Layer 4

OS:StandardsInformation:Construction,
  {12bd1854-7fc8-4792-9566-6bf1587ec687}, !- Handle
  {6c17d9d7-baac-4761-8f65-38887bbd1977}, !- Construction Name
  ExteriorWall,                           !- Intended Surface Type
  Mass;                                   !- Standards Construction Type

OS:Construction,
  {9f0a8367-8349-412f-bd49-3dfb25802280}, !- Handle
  ASHRAE 189.1-2009 ExtWall Mass ClimateZone alt-res 6, !- Name
  ,                                       !- Surface Rendering Name
  {9400ffc5-b012-4dc9-a61f-9dade5865c7a}, !- Layer 1
  {86b1aa18-e503-4dc1-a18a-823f398eed83}, !- Layer 2
  {c462f00c-598b-4659-ad13-4ce5d1436126}, !- Layer 3
  {f05e5933-b229-447d-ba00-cf9c75c28a6a}; !- Layer 4

OS:StandardsInformation:Construction,
  {696574a6-ace6-42ba-918e-c0ecfadf56cf}, !- Handle
  {9f0a8367-8349-412f-bd49-3dfb25802280}, !- Construction Name
  ExteriorWall,                           !- Intended Surface Type
  Mass;                                   !- Standards Construction Type

OS:Construction,
  {4fdb0883-a561-4960-a8ff-fae2f94c3263}, !- Handle
  ASHRAE 189.1-2009 ExtWall Mass ClimateZone alt-res 7, !- Name
  ,                                       !- Surface Rendering Name
  {9400ffc5-b012-4dc9-a61f-9dade5865c7a}, !- Layer 1
  {86b1aa18-e503-4dc1-a18a-823f398eed83}, !- Layer 2
  {c462f00c-598b-4659-ad13-4ce5d1436126}, !- Layer 3
  {f05e5933-b229-447d-ba00-cf9c75c28a6a}; !- Layer 4

OS:StandardsInformation:Construction,
  {dc8b7b20-9278-4795-a0f0-7e4e192e7e3d}, !- Handle
  {4fdb0883-a561-4960-a8ff-fae2f94c3263}, !- Construction Name
  ExteriorWall,                           !- Intended Surface Type