
OS:Version,
  {20d13774-2778-4fa4-ace9-390f960c50a0}, !- Handle
  1.2.3;                                  !- Version Identifier

OS:Construction,
  {ace45803-af78-4963-b11d-77d9533f67bb}, !- Handle
  ASHRAE 189.1-2009 AtticFloor ClimateZone 1-8, !- Name
  ,                                       !- Surface Rendering Name
  {eaaaa15e-4268-47a0-8c50-1f7e76c6c01d}, !- Layer 1
  {1bc076a4-3693-4efb-abfb-7c1ea5d16d9e}, !- Layer 2
  {eaaaa15e-4268-47a0-8c50-1f7e76c6c01d}; !- Layer 3

OS:StandardsInformation:Construction,
  {3a1e6245-ac26-47e5-a95f-2012d3b3ed6e}, !- Handle
  {ace45803-af78-4963-b11d-77d9533f67bb}, !- Construction Name
  AtticFloor,                             !- Intended Surface Type
  WoodFramed;                             !- Standards Construction Type

OS:Material,
  {eaaaa15e-4268-47a0-8c50-1f7e76c6c01d}, !- Handle
  1/2IN Gypsum,                           !- Name
  Smooth,                                 !- Roughness
  0.0127,                                 !- Thickness {m}
  0.16,                                   !- Conductivity {W/m-K}
  784.9,                                  !- Density {kg/m3}
  830.000000000001,                       !- Specific Heat {J/kg-K}
  0.9,                                    !- Thermal Absorptance
  0.92,                                   !- Solar Absorptance
  0.92;                                   !- Visible Absorptance

OS:Material,
  {1bc076a4-3693-4efb-abfb-7c1ea5d16d9e}, !- Handle
  AtticFloor Insulation,                  !- Name
  MediumRough,                            !- Roughness
  0.2379,                                 !- Thickness {m}
  0.049,                                  !- Conductivity {W/m-K}
  265,                                    !- Density {kg/m3}
  836.800000000001,                       !- Specific Heat {J/kg-K}
  0.9,                                    !- Thermal Absorptance
  0.7,                                    !- Solar Absorptance
  0.7;                                    !- Visible Absorptance

OS:Construction,
  {209ac5d9-9eb6-4c5c-a9dd-cff91b9da3d0}, !- Handle
  ASHRAE 189.1-2009 ExtRoof IEAD ClimateZone 1, !- Name
  ,                                       !- Surface Rendering Name
  {84293547-b5e2-48d5-8dc7-b0ac476e2179}, !- Layer 1
  {4b4b72b9-19fd-49c2-a8d1-a5887a192a5c}, !- Layer 2
  {3d1d87f8-f494-4e90-b5fc-1bb26f8ee238}; !- Layer 3

OS:StandardsInformation:Construction,
  {5710d9f2-9e67-4b76-94df-73a226ba1748}, !- Handle
  {209ac5d9-9eb6-4c5c-a9dd-cff91b9da3d0}, !- Construction Name
  ExteriorRoof,                           !- Intended Surface Type
  IEAD;                                   !- Standards Construction Type

OS:Material,
  {84293547-b5e2-48d5-8dc7-b0ac476e2179}, !- Handle
  Roof Membrane,                          !- Name
  VeryRough,                              !- Roughness
  0.0095,                                 !- Thickness {m}
  0.16,                                   !- Conductivity {W/m-K}
  1121.29,                                !- Density {kg/m3}
  1460,                                   !- Specific Heat {J/kg-K}
  0.9,                                    !- Thermal Absorptance
  0.7,                                    !- Solar Absorptance
  0.7;                                    !- Visible Absorptance

OS:Material,
  {4b4b72b9-19fd-49c2-a8d1-a5887a192a5c}, !- Handle
  Roof Insulation [18],                   !- Name
  MediumRough,                            !- Roughness
  0.1693,                                 !- Thickness {m}
  0.049,                                  !- Conductivity {W/m-K}
  265,                                    !- Density {kg/m3}
  836.800000000001,                       !- Specific Heat {J/kg-K}
  0.9,                                    !- Thermal Absorptance
  0.7,                                    !- Solar Absorptance
  0.7;                                    !- Visible Absorptance

OS:Material,
  {3d1d87f8-f494-4e90-b5fc-1bb26f8ee238}, !- Handle
  Metal Decking,                          !- Name
  MediumSmooth,                           !- Roughness
  0.0015,                                 !- Thickness {m}
  45.006,                                 !- Conductivity {W/m-K}
  7680,                                   !- Density {kg/m3}
  418.4,                                  !- Specific Heat {J/kg-K}
  0.9,                                    !- Thermal Absorptance
  0.7,                                    !- Solar Absorptance
  0.3;                                    !- Visible Absorptance

OS:Construction,
  {3a32e74c-11f1-4236-9891-119977023766}, !- Handle
  ASHRAE 189.1-2009 ExtRoof IEAD ClimateZone 2-5, !- Name
  ,                                       !- Surface Rendering Name
  {84293547-b5e2-48d5-8dc7-b0ac476e2179}, !- Layer 1
  {06d6e95c-59de-416e-90e7-c8c8392d4b85}, !- Layer 2
  {3d1d87f8-f494-4e90-b5fc-1bb26f8ee238}; !- Layer 3

OS:StandardsInformation:Construction,
  {8ed1d864-52ea-4d70-85cb-f1a955577d6b}, !- Handle
  {3a32e74c-11f1-4236-9891-119977023766}, !- Construction Name
  ExteriorRoof,                           !- Intended Surface Type
  IEAD;                                   !- Standards Construction Type

OS:Material,
  {06d6e95c-59de-416e-90e7-c8c8392d4b85}, !- Handle
  Roof Insulation [21],                   !- Name
  MediumRough,                            !- Roughness
  0.2105,                                 !- Thickness {m}
  0.049,                                  !- Conductivity {W/m-K}
  265,                                    !- Density {kg/m3}
  836.800000000001,                       !- Specific Heat {J/kg-K}
  0.9,                                    !- Thermal Absorptance
  0.7,                                    !- Solar Absorptance
  0.7;                                    !- Visible Absorptance

OS:Construction,
  {d8ad87bd-b3c9-428b-8cff-d500beb8e869}, !- Handle
  ASHRAE 189.1-2009 ExtRoof IEAD ClimateZone 6, !- Name
  ,                                       !- Surface Rendering Name
  {84293547-b5e2-48d5-8dc7-b0ac476e2179}, !- Layer 1
  {404aa451-af70-4fa1-8a29-3e7d5ced12d8}, !- Layer 2
  {3d1d87f8-f494-4e90-b5fc-1bb26f8ee238}; !- Layer 3

OS:StandardsInformation:Construction,
  {61ac5ab0-929a-4ca5-8e0b-105bdfb20f89}, !- Handle
  {d8ad87bd-b3c9-428b-8cff-d500beb8e869}, !- Construction Name
  ExteriorRoof,                           !- Intended Surface Type
  IEAD;                                   !- Standards Construction Type

OS:Material,
  {404aa451-af70-4fa1-8a29-3e7d5ced12d8}, !- Handle
  Roof Insulation [24],                   !- Name
  MediumRough,                            !- Roughness
  0.260100000000001,                      !- Thickness {m}
  0.049,                                  !- Conductivity {W/m-K}
  265,                                    !- Density {kg/m3}
  836.800000000001,                       !- Specific Heat {J/kg-K}
  0.9,                                    !- Thermal Absorptance
  0.7,                                    !- Solar Absorptance
  0.7;                                    !- Visible Absorptance

OS:Construction,
  {8385549e-f4b3-4bdb-a552-0f19ba9f06b2}, !- Handle
  ASHRAE 189.1-2009 ExtRoof IEAD ClimateZone 7-8, !- Name
  ,                                       !- Surface Rendering Name
  {84293547-b5e2-48d5-8dc7-b0ac476e2179}, !- Layer 1
  {4ef1513f-778d-475a-89d1-fcec7b71fd19}, !- Layer 2
  {3d1d87f8-f494-4e90-b5fc-1bb26f8ee238}; !- Layer 3

OS:StandardsInformation:Construction,
  {5159d943-f97b-4b80-a907-0ff601d30511}, !- Handle
  {8385549e-f4b3-4bdb-a552-0f19ba9f06b2}, !- Construction Name
  ExteriorRoof,                           !- Intended Surface Type
  IEAD;                                   !- Standards Construction Type

OS:Material,
  {4ef1513f-778d-475a-89d1-fcec7b71fd19}, !- Handle
  Roof Insulation [26],                   !- Name
  MediumRough,                            !- Roughness
  0.2941,                                 !- Thickness {m}
  0.049,                                  !- Conductivity {W/m-K}
  265,                                    !- Density {kg/m3}
  836.800000000001,                       !- Specific Heat {J/kg-K}
  0.9,                                    !- Thermal Absorptance
  0.7,                                    !- Solar Absorptance
  0.7;                                    !- Visible Absorptance

OS:Construction,
  {0af0b8a1-b4da-483f-8809-8f8bf5701d45}, !- Handle
  ASHRAE 189.1-2009 ExtRoof Metal ClimateZone 1, !- Name
  ,                                       !- Surface Rendering Name
  {9fc30a2e-25ae-4864-b29e-330f9ebc0481}, !- Layer 1
  {1fdfc966-94bc-4ca9-9438-a604dcc7dbbe}; !- Layer 2

OS:StandardsInformation:Construction,
  {cc272277-c373-4b60-bb08-b1fb7dc2c356}, !- Handle
  {0af0b8a1-b4da-483f-8809-8f8bf5701d45}, !- Construction Name
  ExteriorRoof,                           !- Intended Surface Type
  Metal;                                  !- Standards Construction Type

OS:Material,
  {9fc30a2e-25ae-4864-b29e-330f9ebc0481}, !- Handle
  Metal Roofing,                          !- Name
  MediumSmooth,                           !- Roughness
  0.0015,                                 !- Thickness {m}
  45.006,                                 !- Conductivity {W/m-K}
  7680,                                   !- Density {kg/m3}
  418.4,                                  !- Specific Heat {J/kg-K}
  0.9,                                    !- Thermal Absorptance
  0.3,                                    !- Solar Absorptance
  0.3;                                    !- Visible Absorptance

OS:Material,
  {1fdfc966-94bc-4ca9-9438-a604dcc7dbbe}, !- Handle
  Roof Insulation [19],                   !- Name
  MediumRough,                            !- Roughness
  0.1868,                                 !- Thickness {m}
  0.049,                                  !- Conductivity {W/m-K}
  265,                                    !- Density {kg/m3}
  836.800000000001,                       !- Specific Heat {J/kg-K}
  0.9,                                    !- Thermal Absorptance
  0.7,                                    !- Solar Absorptance
  0.7;                                    !- Visible Absorptance

OS:Construction,
  {7abd980f-7f81-430e-a619-cb7f90d717da}, !- Handle
  ASHRAE 189.1-2009 ExtRoof Metal ClimateZone 2-5, !- Name
  ,                                       !- Surface Rendering Name
  {9fc30a2e-25ae-4864-b29e-330f9ebc0481}, !- Layer 1
  {54687721-1e53-4791-8127-884e31b8ecd1}; !- Layer 2

OS:StandardsInformation:Construction,
  {9392c0cf-1190-432b-a15b-6e3d177beb35}, !- Handle
  {7abd980f-7f81-430e-a619-cb7f90d717da}, !- Construction Name
  ExteriorRoof,                           !- Intended Surface Type
  Metal;                                  !- Standards Construction Type

OS:Material,
  {54687721-1e53-4791-8127-884e31b8ecd1}, !- Handle
  Roof Insulation [22],                   !- Name
  MediumRough,                            !- Roughness
  0.2358,                                 !- Thickness {m}
  0.049,                                  !- Conductivity {W/m-K}
  265,                                    !- Density {kg/m3}
  836.800000000001,                       !- Specific Heat {J/kg-K}
  0.9,                                    !- Thermal Absorptance
  0.7,                                    !- Solar Absorptance
  0.7;                                    !- Visible Absorptance

OS:Construction,
  {6c55c6fc-92bb-487f-a900-2e50f6f2204a}, !- Handle
  ASHRAE 189.1-2009 ExtRoof Metal ClimateZone 6, !- Name
  ,                                       !- Surface Rendering Name
  {9fc30a2e-25ae-4864-b29e-330f9ebc0481}, !- Layer 1
  {18435b4e-3de9-4796-a668-b327ed4c3b1a}; !- Layer 2

OS:StandardsInformation:Construction,
  {55178ee8-2493-421d-a488-467b34c9f3a9}, !- Handle
  {6c55c6fc-92bb-487f-a900-2e50f6f2204a}, !- Construction Name
  ExteriorRoof,                           !- Intended Surface Type
  Metal;                                  !- Standards Construction Type

OS:Material,
  {18435b4e-3de9-4796-a668-b327ed4c3b1a}, !- Handle
  Roof Insulation [25],                   !- Name
  MediumRough,                            !- Roughness
  0.263,                                  !- Thickness {m}
  0.049,                                  !- Conductivity {W/m-K}
  265,                                    !- Density {kg/m3}
  836.800000000001,                       !- Specific Heat {J/kg-K}
  0.9,                                    !- Thermal Absorptance
  0.7,                                    !- Solar Absorptance
  0.7;                                    !- Visible Absorptance

OS:Construction,
  {c50c4564-9c60-4c98-9577-56baac8cbcec}, !- Handle
  ASHRAE 189.1-2009 ExtRoof Metal ClimateZone 7-8, !- Name
  ,                                       !- Surface Rendering Name
  {9fc30a2e-25ae-4864-b29e-330f9ebc0481}, !- Layer 1
  {6b4fdd19-8654-4054-bbf9-bcca7dfef659}; !- Layer 2

OS:StandardsInformation:Construction,
  {b869d005-9865-4d32-88c4-745467dca058}, !- Handle
  {c50c4564-9c60-4c98-9577-56baac8cbcec}, !- Construction Name
  ExteriorRoof,                           !- Intended Surface Type
  Metal;                                  !- Standards Construction Type

OS:Material,
  {6b4fdd19-8654-4054-bbf9-bcca7dfef659}, !- Handle
  Roof Insulation [27],                   !- Name
  MediumRough,                            !- Roughness
  0.297000000000001,                      !- Thickness {m}
  0.049,                                  !- Conductivity {W/m-K}
  265,                                    !- Density {kg/m3}
  836.800000000001,                       !- Specific Heat {J/kg-K}
  0.9,                                    !- Thermal Absorptance
  0.7,                                    !- Solar Absorptance
  0.7;                                    !- Visible Absorptance

OS:Construction,
  {6b3a847f-65b4-4fb8-805e-ff356d0c65dc}, !- Handle
  ASHRAE 189.1-2009 ExtWall Mass ClimateZone 1, !- Name
  ,                                       !- Surface Rendering Name
  {0ae1f55d-ca9c-45cb-b36b-e632b6f068d4}, !- Layer 1
  {0144d101-9fb7-441a-acd9-746c643c61d0}, !- Layer 2
  {9fb663d0-4a74-4d8a-8b87-1e4e82429079}, !- Layer 3
  {eaaaa15e-4268-47a0-8c50-1f7e76c6c01d}; !- Layer 4

OS:StandardsInformation:Construction,
  {7d794415-5326-4707-8fe4-5e8c5d070234}, !- Handle
  {6b3a847f-65b4-4fb8-805e-ff356d0c65dc}, !- Construction Name
  ExteriorWall,                           !- Intended Surface Type
  Mass;                                   !- Standards Construction Type

OS:Material,
  {0ae1f55d-ca9c-45cb-b36b-e632b6f068d4}, !- Handle
  1IN Stucco,                             !- Name
  Smooth,                                 !- Roughness
  0.0253,                                 !- Thickness {m}
  0.691799999999999,                      !- Conductivity {W/m-K}
  1858,                                   !- Density {kg/m3}
  836.999999999999,                       !- Specific Heat {J/kg-K}
  0.9,                                    !- Thermal Absorptance
  0.92,                                   !- Solar Absorptance
  0.92;                                   !- Visible Absorptance

OS:Material,
  {0144d101-9fb7-441a-acd9-746c643c61d0}, !- Handle
  8IN Concrete HW,                        !- Name
  MediumRough,                            !- Roughness
  0.2033,                                 !- Thickness {m}
  1.72959999999999,                       !- Conductivity {W/m-K}
  2242.99999999999,                       !- Density {kg/m3}
  836.999999999999,                       !- Specific Heat {J/kg-K}
  0.9,                                    !- Thermal Absorptance
  0.65,                                   !- Solar Absorptance
  0.65;                                   !- Visible Absorptance

OS:Material,
  {9fb663d0-4a74-4d8a-8b87-1e4e82429079}, !- Handle
  Wall Insulation [31],                   !- Name
  MediumRough,                            !- Roughness
  0.0337000000000001,                     !- Thickness {m}
  0.0432,                                 !- Conductivity {W/m-K}
  91,                                     !- Density {kg/m3}
  836.999999999999,                       !- Specific Heat {J/kg-K}
  0.9,                                    !- Thermal Absorptance
  0.5,                                    !- Solar Absorptance
  0.5;                                    !- Visible Absorptance

OS:Construction,
  {2d719100-f144-476d-b261-9da22a99089d}, !- Handle
  ASHRAE 189.1-2009 ExtWall Mass ClimateZone 2, !- Name
  ,                                       !- Surface Rendering Name
  {0ae1f55d-ca9c-45cb-b36b-e632b6f068d4}, !- Layer 1
  {0144d101-9fb7-441a-acd9-746c643c61d0}, !- Layer 2
  {7cb11437-f74a-4bb6-9363-df3419f8744c}, !- Layer 3
  {eaaaa15e-4268-47a0-8c50-1f7e76c6c01d}; !- Layer 4

OS:StandardsInformation:Construction,
  {957a6dd8-a63e-455c-86df-d9e837b3e011}, !- Handle
  {2d719100-f144-476d-b261-9da22a99089d}, !- Construction Name
  ExteriorWall,                           !- Intended Surface Type
  Mass;                                   !- Standards Construction Type

OS:Material,
  {7cb11437-f74a-4bb6-9363-df3419f8744c}, !- Handle
  Wall Insulation [35],                   !- Name
  MediumRough,                            !- Roughness
  0.0452,                                 !- Thickness {m}
  0.0432,                                 !- Conductivity {W/m-K}
  91,                                     !- Density {kg/m3}
  836.999999999999,                       !- Specific Heat {J/kg-K}
  0.9,                                    !- Thermal Absorptance
  0.5,                                    !- Solar Absorptance
  0.5;                                    !- Visible Absorptance

OS:Construction,
  {a5ff5e53-872b-4bd2-9b16-57c1cec16411}, !- Handle
  ASHRAE 189.1-2009 ExtWall Mass ClimateZone 3, !- Name
  ,                                       !- Surface Rendering Name
  {0ae1f55d-ca9c-45cb-b36b-e632b6f068d4}, !- Layer 1
  {0144d101-9fb7-441a-acd9-746c643c61d0}, !- Layer 2
  {f934c7da-fc1e-4b41-82f6-a840eef7311e}, !- Layer 3
  {eaaaa15e-4268-47a0-8c50-1f7e76c6c01d}; !- Layer 4

OS:StandardsInformation:Construction,
  {a1d36a4d-8f62-4668-9bca-be980bbf47eb}, !- Handle
  {a5ff5e53-872b-4bd2-9b16-57c1cec16411}, !- Construction Name
  ExteriorWall,                           !- Intended Surface Type
  Mass;                                   !- Standards Construction Type

OS:Material,
  {f934c7da-fc1e-4b41-82f6-a840eef7311e}, !- Handle
  Wall Insulation [36],                   !- Name
  MediumRough,                            !- Roughness
  0.0565999999999999,                     !- Thickness {m}
  0.0432,                                 !- Conductivity {W/m-K}
  91,                                     !- Density {kg/m3}
  836.999999999999,                       !- Specific Heat {J/kg-K}
  0.9,                                    !- Thermal Absorptance
  0.5,                                    !- Solar Absorptance
  0.5;                                    !- Visible Absorptance

OS:Construction,
  {89c4c2a5-e3a7-4a3e-9702-fba65b52bf1e}, !- Handle
  ASHRAE 189.1-2009 ExtWall Mass ClimateZone 4, !- Name
  ,                                       !- Surface Rendering Name
  {0ae1f55d-ca9c-45cb-b36b-e632b6f068d4}, !- Layer 1
  {0144d101-9fb7-441a-acd9-746c643c61d0}, !- Layer 2
  {b0ee43d5-3caf-4f38-8ee3-3347a12c50c6}, !- Layer 3
  {eaaaa15e-4268-47a0-8c50-1f7e76c6c01d}; !- Layer 4

OS:StandardsInformation:Construction,
  {a5c9925c-377d-45f8-bb86-36af692c58d9}, !- Handle
  {89c4c2a5-e3a7-4a3e-9702-fba65b52bf1e}, !- Construction Name
  ExteriorWall,                           !- Intended Surface Type
  Mass;                                   !- Standards Construction Type

OS:Material,
  {b0ee43d5-3caf-4f38-8ee3-3347a12c50c6}, !- Handle
  Wall Insulation [37],                   !- Name
  MediumRough,                            !- Roughness
  0.0680999999999999,                     !- Thickness {m}
  0.0432,                                 !- Conductivity {W/m-K}
  91,                                     !- Density {kg/m3}
  836.999999999999,                       !- Specific Heat {J/kg-K}
  0.9,                                    !- Thermal Absorptance
  0.5,                                    !- Solar Absorptance
  0.5;                                    !- Visible Absorptance

OS:Construction,
  {9d0b570a-2698-4871-9ca5-8ea20c70acea}, !- Handle
  ASHRAE 189.1-2009 ExtWall Mass ClimateZone 5, !- Name
  ,                                       !- Surface Rendering Name
  {0ae1f55d-ca9c-45cb-b36b-e632b6f068d4}, !- Layer 1
  {0144d101-9fb7-441a-acd9-746c643c61d0}, !- Layer 2
  {649d4799-523f-4791-93fc-cea87cdafecc}, !- Layer 3
  {eaaaa15e-4268-47a0-8c50-1f7e76c6c01d}; !- Layer 4

OS:StandardsInformation:Construction,
  {d4b84773-45a6-4bcd-9ee0-0b4190ca2805}, !- Handle
  {9d0b570a-2698-4871-9ca5-8ea20c70acea}, !- Construction Name
  ExteriorWall,                           !- Intended Surface Type
  Mass;                                   !- Standards Construction Type

OS:Material,
  {649d4799-523f-4791-93fc-cea87cdafecc}, !- Handle
  Wall Insulation [40],                   !- Name
  MediumRough,                            !- Roughness
  0.0793999999999999,                     !- Thickness {m}
  0.0432,                                 !- Conductivity {W/m-K}
  91,                                     !- Density {kg/m3}
  836.999999999999,                       !- Specific Heat {J/kg-K}
  0.9,                                    !- Thermal Absorptance
  0.5,                                    !- Solar Absorptance
  0.5;                                    !- Visible Absorptance

OS:Construction,
  {e7f5ccea-4172-4483-9bac-6bb54427896d}, !- Handle
  ASHRAE 189.1-2009 ExtWall Mass ClimateZone 6, !- Name
  ,                                       !- Surface Rendering Name
  {0ae1f55d-ca9c-45cb-b36b-e632b6f068d4}, !- Layer 1
  {0144d101-9fb7-441a-acd9-746c643c61d0}, !- Layer 2
  {f281e431-400c-45e4-9f82-670086cb77d6}, !- Layer 3
  {eaaaa15e-4268-47a0-8c50-1f7e76c6c01d}; !- Layer 4

OS:StandardsInformation:Construction,
  {5a0a22af-7066-4eb8-a645-28964c29fe7f}, !- Handle
  {e7f5ccea-4172-4483-9bac-6bb54427896d}, !- Construction Name
  ExteriorWall,                           !- Intended Surface Type
  Mass;                                   !- Standards Construction Type

OS:Material,
  {f281e431-400c-45e4-9f82-670086cb77d6}, !- Handle
  Wall Insulation [42],                   !- Name
  MediumRough,                            !- Roughness
  0.0913999999999999,                     !- Thickness {m}
  0.0432,                                 !- Conductivity {W/m-K}
  91,                                     !- Density {kg/m3}
  836.999999999999,                       !- Specific Heat {J/kg-K}
  0.9,                                    !- Thermal Absorptance
  0.5,                                    !- Solar Absorptance
  0.5;                                    !- Visible Absorptance

OS:Construction,
  {0de7bb71-c5f2-4434-944f-2a0fb5a31ef0}, !- Handle
  ASHRAE 189.1-2009 ExtWall Mass ClimateZone 7-8, !- Name
  ,                                       !- Surface Rendering Name
  {0ae1f55d-ca9c-45cb-b36b-e632b6f068d4}, !- Layer 1
  {0144d101-9fb7-441a-acd9-746c643c61d0}, !- Layer 2
  {1f20965a-54c4-4b22-8af3-0ad1e44f3fa7}, !- Layer 3
  {eaaaa15e-4268-47a0-8c50-1f7e76c6c01d}; !- Layer 4

OS:StandardsInformation:Construction,
  {1758132b-87b1-4854-8624-c161fb415bae}, !- Handle
  {0de7bb71-c5f2-4434-944f-2a0fb5a31ef0}, !- Construction Name
  ExteriorWall,                           !- Intended Surface Type
  Mass;                                   !- Standards Construction Type

OS:Material,
  {1f20965a-54c4-4b22-8af3-0ad1e44f3fa7}, !- Handle
  Wall Insulation [44],                   !- Name
  MediumRough,                            !- Roughness
  0.1104,                                 !- Thickness {m}
  0.0432,                                 !- Conductivity {W/m-K}
  91,                                     !- Density {kg/m3}
  836.999999999999,                       !- Specific Heat {J/kg-K}
  0.9,                                    !- Thermal Absorptance
  0.5,                                    !- Solar Absorptance
  0.5;                                    !- Visible Absorptance

OS:Construction,
  {0ee86066-c1e8-4a45-bde6-1389aea4ae9a}, !- Handle
  ASHRAE 189.1-2009 ExtWall Mass ClimateZone alt-res 1, !- Name
  ,                                       !- Surface Rendering Name
  {0ae1f55d-ca9c-45cb-b36b-e632b6f068d4}, !- Layer 1
  {0144d101-9fb7-441a-acd9-746c643c61d0}, !- Layer 2
  {7cb11437-f74a-4bb6-9363-df3419f8744c}, !- Layer 3
  {eaaaa15e-4268-47a0-8c50-1f7e76c6c01d}; !- Layer 4

OS:StandardsInformation:Construction,
  {4cfec6a6-7863-48a9-822d-d497d17edcd2}, !- Handle
  {0ee86066-c1e8-4a45-bde6-1389aea4ae9a}, !- Construction Name
  ExteriorWall,                           !- Intended Surface Type
  Mass;                                   !- Standards Construction Type

OS:Construction,
  {527f0f11-78b7-48c0-8d4b-0bc5e901f007}, !- Handle
  ASHRAE 189.1-2009 ExtWall Mass ClimateZone alt-res 2, !- Name
  ,                                       !- Surface Rendering Name
  {0ae1f55d-ca9c-45cb-b36b-e632b6f068d4}, !- Layer 1
  {0144d101-9fb7-441a-acd9-746c643c61d0}, !- Layer 2
  {f934c7da-fc1e-4b41-82f6-a840eef7311e}, !- Layer 3
  {eaaaa15e-4268-47a0-8c50-1f7e76c6c01d}; !- Layer 4

OS:StandardsInformation:Construction,
  {8b7174eb-e1b9-4d7b-a99a-55eb35e8d342}, !- Handle
  {527f0f11-78b7-48c0-8d4b-0bc5e901f007}, !- Construction Name
  ExteriorWall,                           !- Intended Surface Type
  Mass;                                   !- Standards Construction Type

OS:Construction,
  {4cef561c-533d-4a2e-990d-d73151004f75}, !- Handle
  ASHRAE 189.1-2009 ExtWall Mass ClimateZone alt-res 3, !- Name
  ,                                       !- Surface Rendering Name
  {0ae1f55d-ca9c-45cb-b36b-e632b6f068d4}, !- Layer 1
  {0144d101-9fb7-441a-acd9-746c643c61d0}, !- Layer 2
  {b0ee43d5-3caf-4f38-8ee3-3347a12c50c6}, !- Layer 3
  {eaaaa15e-4268-47a0-8c50-1f7e76c6c01d}; !- Layer 4

OS:StandardsInformation:Construction,
  {38308d5d-d185-4ce2-8f9a-e1e1aab8c2eb}, !- Handle
  {4cef561c-533d-4a2e-990d-d73151004f75}, !- Construction Name
  ExteriorWall,                           !- Intended Surface Type
  Mass;                                   !- Standards Construction Type

OS:Construction,
  {f23b5f89-c508-4917-a6e6-e9dee6365941}, !- Handle
  ASHRAE 189.1-2009 ExtWall Mass ClimateZone alt-res 4, !- Name
  ,                                       !- Surface Rendering Name
  {0ae1f55d-ca9c-45cb-b36b-e632b6f068d4}, !- Layer 1
  {0144d101-9fb7-441a-acd9-746c643c61d0}, !- Layer 2
  {649d4799-523f-4791-93fc-cea87cdafecc}, !- Layer 3
  {eaaaa15e-4268-47a0-8c50-1f7e76c6c01d}; !- Layer 4

OS:StandardsInformation:Construction,
  {ee88753b-7f76-4181-944c-4afb99ec3267}, !- Handle
  {f23b5f89-c508-4917-a6e6-e9dee6365941}, !- Construction Name
  ExteriorWall,                           !- Intended Surface Type
  Mass;                                   !- Standards Construction Type

OS:Construction,
  {52751c30-df7f-4dfc-a00d-fcdb3fefb470}, !- Handle
  ASHRAE 189.1-2009 ExtWall Mass ClimateZone alt-res 5, !- Name
  ,                                       !- Surface Rendering Name
  {0ae1f55d-ca9c-45cb-b36b-e632b6f068d4}, !- Layer 1
  {0144d101-9fb7-441a-acd9-746c643c61d0}, !- Layer 2
  {f281e431-400c-45e4-9f82-670086cb77d6}, !- Layer 3
  {eaaaa15e-4268-47a0-8c50-1f7e76c6c01d}; !- Layer 4

OS:StandardsInformation:Construction,
  {a0ea6a97-7a12-49e1-a5b3-303b00c25ef9}, !- Handle
  {52751c30-df7f-4dfc-a00d-fcdb3fefb470}, !- Construction Name
  ExteriorWall,                           !- Intended Surface Type
  Mass;                                   !- Standards Construction Type

OS:Construction,
  {3ec104fd-7347-4181-9f81-7a7d390306c4}, !- Handle
  ASHRAE 189.1-2009 ExtWall Mass ClimateZone alt-res 6, !- Name
  ,                                       !- Surface Rendering Name
  {0ae1f55d-ca9c-45cb-b36b-e632b6f068d4}, !- Layer 1
  {0144d101-9fb7-441a-acd9-746c643c61d0}, !- Layer 2
  {1f20965a-54c4-4b22-8af3-0ad1e44f3fa7}, !- Layer 3
  {eaaaa15e-4268-47a0-8c50-1f7e76c6c01d}; !- Layer 4

OS:StandardsInformation:Construction,
  {67e718fd-0603-44de-a73e-ae98f505a54f}, !- Handle
  {3ec104fd-7347-4181-9f81-7a7d390306c4}, !- Construction Name
  ExteriorWall,                           !- Intended Surface Type
  Mass;                                   !- Standards Construction Type

OS:Construction,
  {a5cd59d9-f59f-416b-a1a1-24572f49776b}, !- Handle
  ASHRAE 189.1-2009 ExtWall Mass ClimateZone alt-res 7, !- Name
  ,                                       !- Surface Rendering Name
  {0ae1f55d-ca9c-45cb-b36b-e632b6f068d4}, !- Layer 1
  {0144d101-9fb7-441a-acd9-746c643c61d0}, !- Layer 2
  {1f20965a-54c4-4b22-8af3-0ad1e44f3fa7}, !- Layer 3
  {eaaaa15e-4268-47a0-8c50-1f7e76c6c01d}; !- Layer 4

OS:StandardsInformation:Construction,
  {e1fdcf2f-a221-45ad-9726-a50bc5f622a8}, !- Handle
  {a5cd59d9-f59f-416b-a1a1-24572f49776b}, !- Construction Name
  ExteriorWall,                           !- Intended Surface Type
  Mass;                                   !- Standards Construction Type

OS:Construction,
  {17eac54e-5015-4999-b8a3-cf7ce092927b}, !- Handle
  ASHRAE 189.1-2009 ExtWall Mass ClimateZone alt-res 8, !- Name