
OS:Version,
  {ef90ffad-0a52-4596-852f-d8fee65b354f}, !- Handle
  1.3.0;                                  !- Version Identifier

OS:Construction,
  {f542d06e-1d2a-4046-8429-98f63ff0fa81}, !- Handle
  ASHRAE 189.1-2009 AtticFloor ClimateZone 1-8, !- Name
  ,                                       !- Surface Rendering Name
  {a4ee8268-5bec-4bdd-a308-4ab706701f89}, !- Layer 1
  {c988488c-6f3b-4b0d-a5a3-0285ea89d348}, !- Layer 2
  {a4ee8268-5bec-4bdd-a308-4ab706701f89}; !- Layer 3

OS:StandardsInformation:Construction,
  {19123d7d-7ae0-4654-83a3-134995d53881}, !- Handle
  {f542d06e-1d2a-4046-8429-98f63ff0fa81}, !- Construction Name
  AtticFloor,                             !- Intended Surface Type
  WoodFramed;                             !- Standards Construction Type

OS:Material,
  {a4ee8268-5bec-4bdd-a308-4ab706701f89}, !- Handle
  1/2IN Gypsum,                           !- Name
  Smooth,                                 !- Roughness
  0.0127,                                 !- Thickness {m}
  0.16,                                   !- Conductivity {W/m-K}
  784.9,                                  !- Density {kg/m3}
  830.000000000001,                       !- Specific Heat {J/kg-K}
  0.9,                                    !- Thermal Absorptance
  0.92,                                   !- Solar Absorptance
  0.92;                                   !- Visible Absorptance

OS:Material,
  {c988488c-6f3b-4b0d-a5a3-0285ea89d348}, !- Handle
  AtticFloor Insulation,                  !- Name
  MediumRough,                            !- Roughness
  0.2379,                                 !- Thickness {m}
  0.049,                                  !- Conductivity {W/m-K}
  265,                                    !- Density {kg/m3}
  836.800000000001,                       !- Specific Heat {J/kg-K}
  0.9,                                    !- Thermal Absorptance
  0.7,                                    !- Solar Absorptance
  0.7;                                    !- Visible Absorptance

OS:Construction,
  {864d483a-76b9-4db6-915e-05938599b5d5}, !- Handle
  ASHRAE 189.1-2009 ExtRoof IEAD ClimateZone 1, !- Name
  ,                                       !- Surface Rendering Name
  {1d9f74ab-89f0-433a-8752-7529229a5c0a}, !- Layer 1
  {f1fe01aa-4b63-40b8-9db2-b2d5ef7e425e}, !- Layer 2
  {6fcadb19-b5d0-446b-ae4c-b9c0619d76e8}; !- Layer 3

OS:StandardsInformation:Construction,
  {4606c3a8-44ad-4de5-81bc-389acecf0f0f}, !- Handle
  {864d483a-76b9-4db6-915e-05938599b5d5}, !- Construction Name
  ExteriorRoof,                           !- Intended Surface Type
  IEAD;                                   !- Standards Construction Type

OS:Material,
  {1d9f74ab-89f0-433a-8752-7529229a5c0a}, !- Handle
  Roof Membrane,                          !- Name
  VeryRough,                              !- Roughness
  0.0095,                                 !- Thickness {m}
  0.16,                                   !- Conductivity {W/m-K}
  1121.29,                                !- Density {kg/m3}
  1460,                                   !- Specific Heat {J/kg-K}
  0.9,                                    !- Thermal Absorptance
  0.7,                                    !- Solar Absorptance
  0.7;                                    !- Visible Absorptance

OS:Material,
  {f1fe01aa-4b63-40b8-9db2-b2d5ef7e425e}, !- Handle
  Roof Insulation [18],                   !- Name
  MediumRough,                            !- Roughness
  0.1693,                                 !- Thickness {m}
  0.049,                                  !- Conductivity {W/m-K}
  265,                                    !- Density {kg/m3}
  836.800000000001,                       !- Specific Heat {J/kg-K}
  0.9,                                    !- Thermal Absorptance
  0.7,                                    !- Solar Absorptance
  0.7;                                    !- Visible Absorptance

OS:Material,
  {6fcadb19-b5d0-446b-ae4c-b9c0619d76e8}, !- Handle
  Metal Decking,                          !- Name
  MediumSmooth,                           !- Roughness
  0.0015,                                 !- Thickness {m}
  45.006,                                 !- Conductivity {W/m-K}
  7680,                                   !- Density {kg/m3}
  418.4,                                  !- Specific Heat {J/kg-K}
  0.9,                                    !- Thermal Absorptance
  0.7,                                    !- Solar Absorptance
  0.3;                                    !- Visible Absorptance

OS:Construction,
  {c271a590-5641-4c1d-b0a6-1c215f766fad}, !- Handle
  ASHRAE 189.1-2009 ExtRoof IEAD ClimateZone 2-5, !- Name
  ,                                       !- Surface Rendering Name
  {1d9f74ab-89f0-433a-8752-7529229a5c0a}, !- Layer 1
  {acbb3fce-422f-474f-a0ea-949b89b8f740}, !- Layer 2
  {6fcadb19-b5d0-446b-ae4c-b9c0619d76e8}; !- Layer 3

OS:StandardsInformation:Construction,
  {f118b718-3a1c-4f3a-aade-d43be2353da0}, !- Handle
  {c271a590-5641-4c1d-b0a6-1c215f766fad}, !- Construction Name
  ExteriorRoof,                           !- Intended Surface Type
  IEAD;                                   !- Standards Construction Type

OS:Material,
  {acbb3fce-422f-474f-a0ea-949b89b8f740}, !- Handle
  Roof Insulation [21],                   !- Name
  MediumRough,                            !- Roughness
  0.2105,                                 !- Thickness {m}
  0.049,                                  !- Conductivity {W/m-K}
  265,                                    !- Density {kg/m3}
  836.800000000001,                       !- Specific Heat {J/kg-K}
  0.9,                                    !- Thermal Absorptance
  0.7,                                    !- Solar Absorptance
  0.7;                                    !- Visible Absorptance

OS:Construction,
  {da79b057-c86b-4169-83c5-31522a4a6753}, !- Handle
  ASHRAE 189.1-2009 ExtRoof IEAD ClimateZone 6, !- Name
  ,                                       !- Surface Rendering Name
  {1d9f74ab-89f0-433a-8752-7529229a5c0a}, !- Layer 1
  {d95803b1-40ec-4b45-b36e-98831d4229ee}, !- Layer 2
  {6fcadb19-b5d0-446b-ae4c-b9c0619d76e8}; !- Layer 3

OS:StandardsInformation:Construction,
  {3e03a8c9-51aa-4ca0-9302-f88f4412c5f4}, !- Handle
  {da79b057-c86b-4169-83c5-31522a4a6753}, !- Construction Name
  ExteriorRoof,                           !- Intended Surface Type
  IEAD;                                   !- Standards Construction Type

OS:Material,
  {d95803b1-40ec-4b45-b36e-98831d4229ee}, !- Handle
  Roof Insulation [24],                   !- Name
  MediumRough,                            !- Roughness
  0.260100000000001,                      !- Thickness {m}
  0.049,                                  !- Conductivity {W/m-K}
  265,                                    !- Density {kg/m3}
  836.800000000001,                       !- Specific Heat {J/kg-K}
  0.9,                                    !- Thermal Absorptance
  0.7,                                    !- Solar Absorptance
  0.7;                                    !- Visible Absorptance

OS:Construction,
  {f2d47561-c400-40e0-950e-d62695aced2e}, !- Handle
  ASHRAE 189.1-2009 ExtRoof IEAD ClimateZone 7-8, !- Name
  ,                                       !- Surface Rendering Name
  {1d9f74ab-89f0-433a-8752-7529229a5c0a}, !- Layer 1
  {7e4d8d05-03af-439b-bf34-b58286a2b284}, !- Layer 2
  {6fcadb19-b5d0-446b-ae4c-b9c0619d76e8}; !- Layer 3

OS:StandardsInformation:Construction,
  {bd5ef33e-0689-48d9-866f-16616da8a76c}, !- Handle
  {f2d47561-c400-40e0-950e-d62695aced2e}, !- Construction Name
  ExteriorRoof,                           !- Intended Surface Type
  IEAD;                                   !- Standards Construction Type

OS:Material,
  {7e4d8d05-03af-439b-bf34-b58286a2b284}, !- Handle
  Roof Insulation [26],                   !- Name
  MediumRough,                            !- Roughness
  0.2941,                                 !- Thickness {m}
  0.049,                                  !- Conductivity {W/m-K}
  265,                                    !- Density {kg/m3}
  836.800000000001,                       !- Specific Heat {J/kg-K}
  0.9,                                    !- Thermal Absorptance
  0.7,                                    !- Solar Absorptance
  0.7;                                    !- Visible Absorptance

OS:Construction,
  {d42130a5-acbe-4856-b60b-f1dd6cec1ab2}, !- Handle
  ASHRAE 189.1-2009 ExtRoof Metal ClimateZone 1, !- Name
  ,                                       !- Surface Rendering Name
  {b0e0f76e-8561-4da5-b983-e9677ff87cb5}, !- Layer 1
  {ac6e695e-9f3f-47fc-ad14-62d2ec716fd4}; !- Layer 2

OS:StandardsInformation:Construction,
  {8d0c1629-0fc6-4eea-b7ac-a8dfc87473eb}, !- Handle
  {d42130a5-acbe-4856-b60b-f1dd6cec1ab2}, !- Construction Name
  ExteriorRoof,                           !- Intended Surface Type
  Metal;                                  !- Standards Construction Type

OS:Material,
  {b0e0f76e-8561-4da5-b983-e9677ff87cb5}, !- Handle
  Metal Roofing,                          !- Name
  MediumSmooth,                           !- Roughness
  0.0015,                                 !- Thickness {m}
  45.006,                                 !- Conductivity {W/m-K}
  7680,                                   !- Density {kg/m3}
  418.4,                                  !- Specific Heat {J/kg-K}
  0.9,                                    !- Thermal Absorptance
  0.3,                                    !- Solar Absorptance
  0.3;                                    !- Visible Absorptance

OS:Material,
  {ac6e695e-9f3f-47fc-ad14-62d2ec716fd4}, !- Handle
  Roof Insulation [19],                   !- Name
  MediumRough,                            !- Roughness
  0.1868,                                 !- Thickness {m}
  0.049,                                  !- Conductivity {W/m-K}
  265,                                    !- Density {kg/m3}
  836.800000000001,                       !- Specific Heat {J/kg-K}
  0.9,                                    !- Thermal Absorptance
  0.7,                                    !- Solar Absorptance
  0.7;                                    !- Visible Absorptance

OS:Construction,
  {7d399fc7-eb9d-4be5-a7e4-f1643f3a1048}, !- Handle
  ASHRAE 189.1-2009 ExtRoof Metal ClimateZone 2-5, !- Name
  ,                                       !- Surface Rendering Name
  {b0e0f76e-8561-4da5-b983-e9677ff87cb5}, !- Layer 1
  {aa6ece93-1b7c-4ffb-9261-c79e967be3f0}; !- Layer 2

OS:StandardsInformation:Construction,
  {789ebd93-311d-4385-b81e-9087f25b5306}, !- Handle
  {7d399fc7-eb9d-4be5-a7e4-f1643f3a1048}, !- Construction Name
  ExteriorRoof,                           !- Intended Surface Type
  Metal;                                  !- Standards Construction Type

OS:Material,
  {aa6ece93-1b7c-4ffb-9261-c79e967be3f0}, !- Handle
  Roof Insulation [22],                   !- Name
  MediumRough,                            !- Roughness
  0.2358,                                 !- Thickness {m}
  0.049,                                  !- Conductivity {W/m-K}
  265,                                    !- Density {kg/m3}
  836.800000000001,                       !- Specific Heat {J/kg-K}
  0.9,                                    !- Thermal Absorptance
  0.7,                                    !- Solar Absorptance
  0.7;                                    !- Visible Absorptance

OS:Construction,
  {6d711e9b-0ca0-40c3-8e44-d1e92a1908fb}, !- Handle
  ASHRAE 189.1-2009 ExtRoof Metal ClimateZone 6, !- Name
  ,                                       !- Surface Rendering Name
  {b0e0f76e-8561-4da5-b983-e9677ff87cb5}, !- Layer 1
  {d4f404ae-8373-4f0a-92d2-95d132c0eed7}; !- Layer 2

OS:StandardsInformation:Construction,
  {ae0a598a-18b2-43a0-b0f1-42a2f4cd03b0}, !- Handle
  {6d711e9b-0ca0-40c3-8e44-d1e92a1908fb}, !- Construction Name
  ExteriorRoof,                           !- Intended Surface Type
  Metal;                                  !- Standards Construction Type

OS:Material,
  {d4f404ae-8373-4f0a-92d2-95d132c0eed7}, !- Handle
  Roof Insulation [25],                   !- Name
  MediumRough,                            !- Roughness
  0.263,                                  !- Thickness {m}
  0.049,                                  !- Conductivity {W/m-K}
  265,                                    !- Density {kg/m3}
  836.800000000001,                       !- Specific Heat {J/kg-K}
  0.9,                                    !- Thermal Absorptance
  0.7,                                    !- Solar Absorptance
  0.7;                                    !- Visible Absorptance

OS:Construction,
  {b6766479-1707-424f-b0b4-901e8590b536}, !- Handle
  ASHRAE 189.1-2009 ExtRoof Metal ClimateZone 7-8, !- Name
  ,                                       !- Surface Rendering Name
  {b0e0f76e-8561-4da5-b983-e9677ff87cb5}, !- Layer 1
  {221166eb-fdd6-4661-aaf2-c6101a6530cd}; !- Layer 2

OS:StandardsInformation:Construction,
  {ea362d54-ed60-4ec2-be7f-b910d250b779}, !- Handle
  {b6766479-1707-424f-b0b4-901e8590b536}, !- Construction Name
  ExteriorRoof,                           !- Intended Surface Type
  Metal;                                  !- Standards Construction Type

OS:Material,
  {221166eb-fdd6-4661-aaf2-c6101a6530cd}, !- Handle
  Roof Insulation [27],                   !- Name
  MediumRough,                            !- Roughness
  0.297000000000001,                      !- Thickness {m}
  0.049,                                  !- Conductivity {W/m-K}
  265,                                    !- Density {kg/m3}
  836.800000000001,                       !- Specific Heat {J/kg-K}
  0.9,                                    !- Thermal Absorptance
  0.7,                                    !- Solar Absorptance
  0.7;                                    !- Visible Absorptance

OS:Construction,
  {978e98ce-32ce-49e5-8486-e045849e3a0b}, !- Handle
  ASHRAE 189.1-2009 ExtWall Mass ClimateZone 1, !- Name
  ,                                       !- Surface Rendering Name
  {d49849a2-3af3-4d6f-a6cf-8780a7fabd5f}, !- Layer 1
  {4974628f-c362-4827-86df-cf1c85a17bdc}, !- Layer 2
  {a63cffbc-1eab-45f2-ba49-fd02929d7e43}, !- Layer 3
  {a4ee8268-5bec-4bdd-a308-4ab706701f89}; !- Layer 4

OS:StandardsInformation:Construction,
  {bc7db969-6ed9-45e2-9f2e-20401d511644}, !- Handle
  {978e98ce-32ce-49e5-8486-e045849e3a0b}, !- Construction Name
  ExteriorWall,                           !- Intended Surface Type
  Mass;                                   !- Standards Construction Type

OS:Material,
  {d49849a2-3af3-4d6f-a6cf-8780a7fabd5f}, !- Handle
  1IN Stucco,                             !- Name
  Smooth,                                 !- Roughness
  0.0253,                                 !- Thickness {m}
  0.691799999999999,                      !- Conductivity {W/m-K}
  1858,                                   !- Density {kg/m3}
  836.999999999999,                       !- Specific Heat {J/kg-K}
  0.9,                                    !- Thermal Absorptance
  0.92,                                   !- Solar Absorptance
  0.92;                                   !- Visible Absorptance

OS:Material,
  {4974628f-c362-4827-86df-cf1c85a17bdc}, !- Handle
  8IN Concrete HW,                        !- Name
  MediumRough,                            !- Roughness
  0.2033,                                 !- Thickness {m}
  1.72959999999999,                       !- Conductivity {W/m-K}
  2242.99999999999,                       !- Density {kg/m3}
  836.999999999999,                       !- Specific Heat {J/kg-K}
  0.9,                                    !- Thermal Absorptance
  0.65,                                   !- Solar Absorptance
  0.65;                                   !- Visible Absorptance

OS:Material,
  {a63cffbc-1eab-45f2-ba49-fd02929d7e43}, !- Handle
  Wall Insulation [31],                   !- Name
  MediumRough,                            !- Roughness
  0.0337000000000001,                     !- Thickness {m}
  0.0432,                                 !- Conductivity {W/m-K}
  91,                                     !- Density {kg/m3}
  836.999999999999,                       !- Specific Heat {J/kg-K}
  0.9,                                    !- Thermal Absorptance
  0.5,                                    !- Solar Absorptance
  0.5;                                    !- Visible Absorptance

OS:Construction,
  {287e6f70-5697-4693-8297-1335cad94795}, !- Handle
  ASHRAE 189.1-2009 ExtWall Mass ClimateZone 2, !- Name
  ,                                       !- Surface Rendering Name
  {d49849a2-3af3-4d6f-a6cf-8780a7fabd5f}, !- Layer 1
  {4974628f-c362-4827-86df-cf1c85a17bdc}, !- Layer 2
  {96ae5f8a-2d02-43e2-bf7f-9de0a24682a6}, !- Layer 3
  {a4ee8268-5bec-4bdd-a308-4ab706701f89}; !- Layer 4

OS:StandardsInformation:Construction,
  {0fe78ba8-3a66-477e-b8e0-eb6b0e3dfa49}, !- Handle
  {287e6f70-5697-4693-8297-1335cad94795}, !- Construction Name
  ExteriorWall,                           !- Intended Surface Type
  Mass;                                   !- Standards Construction Type

OS:Material,
  {96ae5f8a-2d02-43e2-bf7f-9de0a24682a6}, !- Handle
  Wall Insulation [35],                   !- Name
  MediumRough,                            !- Roughness
  0.0452,                                 !- Thickness {m}
  0.0432,                                 !- Conductivity {W/m-K}
  91,                                     !- Density {kg/m3}
  836.999999999999,                       !- Specific Heat {J/kg-K}
  0.9,                                    !- Thermal Absorptance
  0.5,                                    !- Solar Absorptance
  0.5;                                    !- Visible Absorptance

OS:Construction,
  {eae5588a-5506-4fc8-83a8-1956aa1d5927}, !- Handle
  ASHRAE 189.1-2009 ExtWall Mass ClimateZone 3, !- Name
  ,                                       !- Surface Rendering Name
  {d49849a2-3af3-4d6f-a6cf-8780a7fabd5f}, !- Layer 1
  {4974628f-c362-4827-86df-cf1c85a17bdc}, !- Layer 2
  {c34eb2b4-3dc8-4574-98f5-d86bda35fa05}, !- Layer 3
  {a4ee8268-5bec-4bdd-a308-4ab706701f89}; !- Layer 4

OS:StandardsInformation:Construction,
  {79bd9d26-e175-449a-806a-97f58efb5613}, !- Handle
  {eae5588a-5506-4fc8-83a8-1956aa1d5927}, !- Construction Name
  ExteriorWall,                           !- Intended Surface Type
  Mass;                                   !- Standards Construction Type

OS:Material,
  {c34eb2b4-3dc8-4574-98f5-d86bda35fa05}, !- Handle
  Wall Insulation [36],                   !- Name
  MediumRough,                            !- Roughness
  0.0565999999999999,                     !- Thickness {m}
  0.0432,                                 !- Conductivity {W/m-K}
  91,                                     !- Density {kg/m3}
  836.999999999999,                       !- Specific Heat {J/kg-K}
  0.9,                                    !- Thermal Absorptance
  0.5,                                    !- Solar Absorptance
  0.5;                                    !- Visible Absorptance

OS:Construction,
  {c1529173-e764-42c0-a048-44829a8312d4}, !- Handle
  ASHRAE 189.1-2009 ExtWall Mass ClimateZone 4, !- Name
  ,                                       !- Surface Rendering Name
  {d49849a2-3af3-4d6f-a6cf-8780a7fabd5f}, !- Layer 1
  {4974628f-c362-4827-86df-cf1c85a17bdc}, !- Layer 2
  {10413b19-b452-41de-a60a-e8729b3199a9}, !- Layer 3
  {a4ee8268-5bec-4bdd-a308-4ab706701f89}; !- Layer 4

OS:StandardsInformation:Construction,
  {5e827de2-cb24-4bfb-bc59-0491423968cc}, !- Handle
  {c1529173-e764-42c0-a048-44829a8312d4}, !- Construction Name
  ExteriorWall,                           !- Intended Surface Type
  Mass;                                   !- Standards Construction Type

OS:Material,
  {10413b19-b452-41de-a60a-e8729b3199a9}, !- Handle
  Wall Insulation [37],                   !- Name
  MediumRough,                            !- Roughness
  0.0680999999999999,                     !- Thickness {m}
  0.0432,                                 !- Conductivity {W/m-K}
  91,                                     !- Density {kg/m3}
  836.999999999999,                       !- Specific Heat {J/kg-K}
  0.9,                                    !- Thermal Absorptance
  0.5,                                    !- Solar Absorptance
  0.5;                                    !- Visible Absorptance

OS:Construction,
  {ac41463b-35e2-4473-ab66-3a756002748e}, !- Handle
  ASHRAE 189.1-2009 ExtWall Mass ClimateZone 5, !- Name
  ,                                       !- Surface Rendering Name
  {d49849a2-3af3-4d6f-a6cf-8780a7fabd5f}, !- Layer 1
  {4974628f-c362-4827-86df-cf1c85a17bdc}, !- Layer 2
  {52757b2a-5e22-419f-b28a-5568c29d294f}, !- Layer 3
  {a4ee8268-5bec-4bdd-a308-4ab706701f89}; !- Layer 4

OS:StandardsInformation:Construction,
  {29d26cb4-b322-4118-a786-7331088f6eec}, !- Handle
  {ac41463b-35e2-4473-ab66-3a756002748e}, !- Construction Name
  ExteriorWall,                           !- Intended Surface Type
  Mass;                                   !- Standards Construction Type

OS:Material,
  {52757b2a-5e22-419f-b28a-5568c29d294f}, !- Handle
  Wall Insulation [40],                   !- Name
  MediumRough,                            !- Roughness
  0.0793999999999999,                     !- Thickness {m}
  0.0432,                                 !- Conductivity {W/m-K}
  91,                                     !- Density {kg/m3}
  836.999999999999,                       !- Specific Heat {J/kg-K}
  0.9,                                    !- Thermal Absorptance
  0.5,                                    !- Solar Absorptance
  0.5;                                    !- Visible Absorptance

OS:Construction,
  {ffacc6c5-833d-4970-992f-424abe733711}, !- Handle
  ASHRAE 189.1-2009 ExtWall Mass ClimateZone 6, !- Name
  ,                                       !- Surface Rendering Name
  {d49849a2-3af3-4d6f-a6cf-8780a7fabd5f}, !- Layer 1
  {4974628f-c362-4827-86df-cf1c85a17bdc}, !- Layer 2
  {4907c9e1-720f-4ed4-a92c-3efe1ae901ea}, !- Layer 3
  {a4ee8268-5bec-4bdd-a308-4ab706701f89}; !- Layer 4

OS:StandardsInformation:Construction,
  {4230a1d3-2422-4b7c-b9e9-7b8e1c632191}, !- Handle
  {ffacc6c5-833d-4970-992f-424abe733711}, !- Construction Name
  ExteriorWall,                           !- Intended Surface Type
  Mass;                                   !- Standards Construction Type

OS:Material,
  {4907c9e1-720f-4ed4-a92c-3efe1ae901ea}, !- Handle
  Wall Insulation [42],                   !- Name
  MediumRough,                            !- Roughness
  0.0913999999999999,                     !- Thickness {m}
  0.0432,                                 !- Conductivity {W/m-K}
  91,                                     !- Density {kg/m3}
  836.999999999999,                       !- Specific Heat {J/kg-K}
  0.9,                                    !- Thermal Absorptance
  0.5,                                    !- Solar Absorptance
  0.5;                                    !- Visible Absorptance

OS:Construction,
  {7e766a8b-d4b4-4ed9-a4e6-4ce9127031fa}, !- Handle
  ASHRAE 189.1-2009 ExtWall Mass ClimateZone 7-8, !- Name
  ,                                       !- Surface Rendering Name
  {d49849a2-3af3-4d6f-a6cf-8780a7fabd5f}, !- Layer 1
  {4974628f-c362-4827-86df-cf1c85a17bdc}, !- Layer 2
  {8d5735ea-e495-45c9-b249-375d64a32ba5}, !- Layer 3
  {a4ee8268-5bec-4bdd-a308-4ab706701f89}; !- Layer 4

OS:StandardsInformation:Construction,
  {75776d57-32d0-4c2d-9994-ec42b2499745}, !- Handle
  {7e766a8b-d4b4-4ed9-a4e6-4ce9127031fa}, !- Construction Name
  ExteriorWall,                           !- Intended Surface Type
  Mass;                                   !- Standards Construction Type

OS:Material,
  {8d5735ea-e495-45c9-b249-375d64a32ba5}, !- Handle
  Wall Insulation [44],                   !- Name
  MediumRough,                            !- Roughness
  0.1104,                                 !- Thickness {m}
  0.0432,                                 !- Conductivity {W/m-K}
  91,                                     !- Density {kg/m3}
  836.999999999999,                       !- Specific Heat {J/kg-K}
  0.9,                                    !- Thermal Absorptance
  0.5,                                    !- Solar Absorptance
  0.5;                                    !- Visible Absorptance

OS:Construction,
  {57da0645-9a1a-4cb4-aec2-ded6c6c99724}, !- Handle
  ASHRAE 189.1-2009 ExtWall Mass ClimateZone alt-res 1, !- Name
  ,                                       !- Surface Rendering Name
  {d49849a2-3af3-4d6f-a6cf-8780a7fabd5f}, !- Layer 1
  {4974628f-c362-4827-86df-cf1c85a17bdc}, !- Layer 2
  {96ae5f8a-2d02-43e2-bf7f-9de0a24682a6}, !- Layer 3
  {a4ee8268-5bec-4bdd-a308-4ab706701f89}; !- Layer 4

OS:StandardsInformation:Construction,
  {8bed3592-784e-457a-82c7-d2166fcc1b04}, !- Handle
  {57da0645-9a1a-4cb4-aec2-ded6c6c99724}, !- Construction Name
  ExteriorWall,                           !- Intended Surface Type
  Mass;                                   !- Standards Construction Type

OS:Construction,
  {9b815a77-dc1c-4e4f-953f-925d1257fa74}, !- Handle
  ASHRAE 189.1-2009 ExtWall Mass ClimateZone alt-res 2, !- Name
  ,                                       !- Surface Rendering Name
  {d49849a2-3af3-4d6f-a6cf-8780a7fabd5f}, !- Layer 1
  {4974628f-c362-4827-86df-cf1c85a17bdc}, !- Layer 2
  {c34eb2b4-3dc8-4574-98f5-d86bda35fa05}, !- Layer 3
  {a4ee8268-5bec-4bdd-a308-4ab706701f89}; !- Layer 4

OS:StandardsInformation:Construction,
  {4301b27d-9c2a-495c-9aa1-a7bfdd56cc22}, !- Handle
  {9b815a77-dc1c-4e4f-953f-925d1257fa74}, !- Construction Name
  ExteriorWall,                           !- Intended Surface Type
  Mass;                                   !- Standards Construction Type

OS:Construction,
  {af3a0e4d-04b3-4cf3-9590-884fb7cea675}, !- Handle
  ASHRAE 189.1-2009 ExtWall Mass ClimateZone alt-res 3, !- Name
  ,                                       !- Surface Rendering Name
  {d49849a2-3af3-4d6f-a6cf-8780a7fabd5f}, !- Layer 1
  {4974628f-c362-4827-86df-cf1c85a17bdc}, !- Layer 2
  {10413b19-b452-41de-a60a-e8729b3199a9}, !- Layer 3
  {a4ee8268-5bec-4bdd-a308-4ab706701f89}; !- Layer 4

OS:StandardsInformation:Construction,
  {5089a3f3-6372-406b-b599-5f4adb720647}, !- Handle
  {af3a0e4d-04b3-4cf3-9590-884fb7cea675}, !- Construction Name
  ExteriorWall,                           !- Intended Surface Type
  Mass;                                   !- Standards Construction Type

OS:Construction,
  {640a7d35-c1c9-4a6b-8c2c-eef80672e416}, !- Handle
  ASHRAE 189.1-2009 ExtWall Mass ClimateZone alt-res 4, !- Name
  ,                                       !- Surface Rendering Name
  {d49849a2-3af3-4d6f-a6cf-8780a7fabd5f}, !- Layer 1
  {4974628f-c362-4827-86df-cf1c85a17bdc}, !- Layer 2
  {52757b2a-5e22-419f-b28a-5568c29d294f}, !- Layer 3
  {a4ee8268-5bec-4bdd-a308-4ab706701f89}; !- Layer 4

OS:StandardsInformation:Construction,
  {b857fbff-f789-4c2a-a22e-34969b2253e0}, !- Handle
  {640a7d35-c1c9-4a6b-8c2c-eef80672e416}, !- Construction Name
  ExteriorWall,                           !- Intended Surface Type
  Mass;                                   !- Standards Construction Type

OS:Construction,
  {ae8f38e8-4465-4732-821a-470f2d872bd6}, !- Handle
  ASHRAE 189.1-2009 ExtWall Mass ClimateZone alt-res 5, !- Name
  ,                                       !- Surface Rendering Name
  {d49849a2-3af3-4d6f-a6cf-8780a7fabd5f}, !- Layer 1
  {4974628f-c362-4827-86df-cf1c85a17bdc}, !- Layer 2
  {4907c9e1-720f-4ed4-a92c-3efe1ae901ea}, !- Layer 3
  {a4ee8268-5bec-4bdd-a308-4ab706701f89}; !- Layer 4

OS:StandardsInformation:Construction,
  {b23310be-2e28-4fed-ac73-1cba41c06d29}, !- Handle
  {ae8f38e8-4465-4732-821a-470f2d872bd6}, !- Construction Name
  ExteriorWall,                           !- Intended Surface Type
  Mass;                                   !- Standards Construction Type

OS:Construction,
  {20364717-a75a-4030-b4d8-e78dedfcf83e}, !- Handle
  ASHRAE 189.1-2009 ExtWall Mass ClimateZone alt-res 6, !- Name
  ,                                       !- Surface Rendering Name
  {d49849a2-3af3-4d6f-a6cf-8780a7fabd5f}, !- Layer 1
  {4974628f-c362-4827-86df-cf1c85a17bdc}, !- Layer 2
  {8d5735ea-e495-45c9-b249-375d64a32ba5}, !- Layer 3
  {a4ee8268-5bec-4bdd-a308-4ab706701f89}; !- Layer 4

OS:StandardsInformation:Construction,
  {c61b2361-2bc0-4a6e-ae6e-46f043b51cea}, !- Handle
  {20364717-a75a-4030-b4d8-e78dedfcf83e}, !- Construction Name
  ExteriorWall,                           !- Intended Surface Type
  Mass;                                   !- Standards Construction Type

OS:Construction,
  {573dad82-0f95-48ef-b635-e68d886bdb48}, !- Handle
  ASHRAE 189.1-2009 ExtWall Mass ClimateZone alt-res 7, !- Name
  ,                                       !- Surface Rendering Name
  {d49849a2-3af3-4d6f-a6cf-8780a7fabd5f}, !- Layer 1
  {4974628f-c362-4827-86df-cf1c85a17bdc}, !- Layer 2
  {8d5735ea-e495-45c9-b249-375d64a32ba5}, !- Layer 3
  {a4ee8268-5bec-4bdd-a308-4ab706701f89}; !- Layer 4

OS:StandardsInformation:Construction,
  {f7ef5f1b-921f-4637-98a2-3e124f51df4d}, !- Handle
  {573dad82-0f95-48ef-b635-e68d886bdb48}, !- Construction Name
  ExteriorWall,                           !- Intended Surface Type
  Mass;                                   !- Standards Construction Type

OS:Construction,
  {bf1a3fdf-d216-4a97-99d3-2463035ff1cb}, !- Handle
  ASHRAE 189.1-2009 ExtWall Mass ClimateZone alt-res 8, !- Name