
OS:Version,
  {081b1173-7eda-44f9-a3bc-92d024391883}, !- Handle
  1.3.0;                                  !- Version Identifier

OS:Construction,
  {c90facd1-0756-4903-bc84-fb89ec6d7620}, !- Handle
  ASHRAE 189.1-2009 AtticFloor ClimateZone 1-8, !- Name
  ,                                       !- Surface Rendering Name
  {cf3b90ff-3470-4f39-925f-3d29a1b3885f}, !- Layer 1
  {6a450887-33e4-450d-adc2-366babc06981}, !- Layer 2
  {cf3b90ff-3470-4f39-925f-3d29a1b3885f}; !- Layer 3

OS:StandardsInformation:Construction,
  {7667bb82-a7e2-4b60-816d-b49efdc2ffbd}, !- Handle
  {c90facd1-0756-4903-bc84-fb89ec6d7620}, !- Construction Name
  AtticFloor,                             !- Intended Surface Type
  WoodFramed;                             !- Standards Construction Type

OS:Material,
  {cf3b90ff-3470-4f39-925f-3d29a1b3885f}, !- Handle
  1/2IN Gypsum,                           !- Name
  Smooth,                                 !- Roughness
  0.0127,                                 !- Thickness {m}
  0.16,                                   !- Conductivity {W/m-K}
  784.9,                                  !- Density {kg/m3}
  830.000000000001,                       !- Specific Heat {J/kg-K}
  0.9,                                    !- Thermal Absorptance
  0.92,                                   !- Solar Absorptance
  0.92;                                   !- Visible Absorptance

OS:Material,
  {6a450887-33e4-450d-adc2-366babc06981}, !- Handle
  AtticFloor Insulation,                  !- Name
  MediumRough,                            !- Roughness
  0.2379,                                 !- Thickness {m}
  0.049,                                  !- Conductivity {W/m-K}
  265,                                    !- Density {kg/m3}
  836.800000000001,                       !- Specific Heat {J/kg-K}
  0.9,                                    !- Thermal Absorptance
  0.7,                                    !- Solar Absorptance
  0.7;                                    !- Visible Absorptance

OS:Construction,
  {48464071-726c-4122-87f7-27a230f7955d}, !- Handle
  ASHRAE 189.1-2009 ExtRoof IEAD ClimateZone 1, !- Name
  ,                                       !- Surface Rendering Name
  {cbe9135a-3b62-4b42-a5a1-9e1af92480aa}, !- Layer 1
  {6d106d4d-bec5-4e90-8f71-fc3ac07db196}, !- Layer 2
  {ae7f8baa-9409-4794-8030-7a0555a38ee1}; !- Layer 3

OS:StandardsInformation:Construction,
  {439f103b-90ee-49b5-9435-192494fdad4d}, !- Handle
  {48464071-726c-4122-87f7-27a230f7955d}, !- Construction Name
  ExteriorRoof,                           !- Intended Surface Type
  IEAD;                                   !- Standards Construction Type

OS:Material,
  {cbe9135a-3b62-4b42-a5a1-9e1af92480aa}, !- Handle
  Roof Membrane,                          !- Name
  VeryRough,                              !- Roughness
  0.0095,                                 !- Thickness {m}
  0.16,                                   !- Conductivity {W/m-K}
  1121.29,                                !- Density {kg/m3}
  1460,                                   !- Specific Heat {J/kg-K}
  0.9,                                    !- Thermal Absorptance
  0.7,                                    !- Solar Absorptance
  0.7;                                    !- Visible Absorptance

OS:Material,
  {6d106d4d-bec5-4e90-8f71-fc3ac07db196}, !- Handle
  Roof Insulation [18],                   !- Name
  MediumRough,                            !- Roughness
  0.1693,                                 !- Thickness {m}
  0.049,                                  !- Conductivity {W/m-K}
  265,                                    !- Density {kg/m3}
  836.800000000001,                       !- Specific Heat {J/kg-K}
  0.9,                                    !- Thermal Absorptance
  0.7,                                    !- Solar Absorptance
  0.7;                                    !- Visible Absorptance

OS:Material,
  {ae7f8baa-9409-4794-8030-7a0555a38ee1}, !- Handle
  Metal Decking,                          !- Name
  MediumSmooth,                           !- Roughness
  0.0015,                                 !- Thickness {m}
  45.006,                                 !- Conductivity {W/m-K}
  7680,                                   !- Density {kg/m3}
  418.4,                                  !- Specific Heat {J/kg-K}
  0.9,                                    !- Thermal Absorptance
  0.7,                                    !- Solar Absorptance
  0.3;                                    !- Visible Absorptance

OS:Construction,
  {18b92f1a-c4b6-4bc9-80c0-765a71820551}, !- Handle
  ASHRAE 189.1-2009 ExtRoof IEAD ClimateZone 2-5, !- Name
  ,                                       !- Surface Rendering Name
  {cbe9135a-3b62-4b42-a5a1-9e1af92480aa}, !- Layer 1
  {f82f33e3-6b26-42c1-9fd1-622ece677607}, !- Layer 2
  {ae7f8baa-9409-4794-8030-7a0555a38ee1}; !- Layer 3

OS:StandardsInformation:Construction,
  {da1b0f99-62a4-4b73-b55d-87c04761bb63}, !- Handle
  {18b92f1a-c4b6-4bc9-80c0-765a71820551}, !- Construction Name
  ExteriorRoof,                           !- Intended Surface Type
  IEAD;                                   !- Standards Construction Type

OS:Material,
  {f82f33e3-6b26-42c1-9fd1-622ece677607}, !- Handle
  Roof Insulation [21],                   !- Name
  MediumRough,                            !- Roughness
  0.2105,                                 !- Thickness {m}
  0.049,                                  !- Conductivity {W/m-K}
  265,                                    !- Density {kg/m3}
  836.800000000001,                       !- Specific Heat {J/kg-K}
  0.9,                                    !- Thermal Absorptance
  0.7,                                    !- Solar Absorptance
  0.7;                                    !- Visible Absorptance

OS:Construction,
  {3cf6d07c-9fce-4d6a-a818-8006017be9c9}, !- Handle
  ASHRAE 189.1-2009 ExtRoof IEAD ClimateZone 6, !- Name
  ,                                       !- Surface Rendering Name
  {cbe9135a-3b62-4b42-a5a1-9e1af92480aa}, !- Layer 1
  {4755b916-490a-431d-b638-f6638169ed5d}, !- Layer 2
  {ae7f8baa-9409-4794-8030-7a0555a38ee1}; !- Layer 3

OS:StandardsInformation:Construction,
  {68204f7a-28c5-43a3-890f-2ee8cfbce080}, !- Handle
  {3cf6d07c-9fce-4d6a-a818-8006017be9c9}, !- Construction Name
  ExteriorRoof,                           !- Intended Surface Type
  IEAD;                                   !- Standards Construction Type

OS:Material,
  {4755b916-490a-431d-b638-f6638169ed5d}, !- Handle
  Roof Insulation [24],                   !- Name
  MediumRough,                            !- Roughness
  0.260100000000001,                      !- Thickness {m}
  0.049,                                  !- Conductivity {W/m-K}
  265,                                    !- Density {kg/m3}
  836.800000000001,                       !- Specific Heat {J/kg-K}
  0.9,                                    !- Thermal Absorptance
  0.7,                                    !- Solar Absorptance
  0.7;                                    !- Visible Absorptance

OS:Construction,
  {f1b70034-981f-4218-a61a-8f571f06cbbb}, !- Handle
  ASHRAE 189.1-2009 ExtRoof IEAD ClimateZone 7-8, !- Name
  ,                                       !- Surface Rendering Name
  {cbe9135a-3b62-4b42-a5a1-9e1af92480aa}, !- Layer 1
  {6462371b-320f-4b62-9310-7d9d1dd21a02}, !- Layer 2
  {ae7f8baa-9409-4794-8030-7a0555a38ee1}; !- Layer 3

OS:StandardsInformation:Construction,
  {36fb567d-3fa7-45aa-a710-54b3a0267780}, !- Handle
  {f1b70034-981f-4218-a61a-8f571f06cbbb}, !- Construction Name
  ExteriorRoof,                           !- Intended Surface Type
  IEAD;                                   !- Standards Construction Type

OS:Material,
  {6462371b-320f-4b62-9310-7d9d1dd21a02}, !- Handle
  Roof Insulation [26],                   !- Name
  MediumRough,                            !- Roughness
  0.2941,                                 !- Thickness {m}
  0.049,                                  !- Conductivity {W/m-K}
  265,                                    !- Density {kg/m3}
  836.800000000001,                       !- Specific Heat {J/kg-K}
  0.9,                                    !- Thermal Absorptance
  0.7,                                    !- Solar Absorptance
  0.7;                                    !- Visible Absorptance

OS:Construction,
  {93cdecc8-ed1d-4967-b22e-2c7cf78d96f1}, !- Handle
  ASHRAE 189.1-2009 ExtRoof Metal ClimateZone 1, !- Name
  ,                                       !- Surface Rendering Name
  {a1e52c85-bbc5-4c49-b058-9cb32005c3f8}, !- Layer 1
  {b35c1d52-89cd-43c0-b983-752936244558}; !- Layer 2

OS:StandardsInformation:Construction,
  {f04cd357-757d-4ccd-81cb-76a0b17bddc7}, !- Handle
  {93cdecc8-ed1d-4967-b22e-2c7cf78d96f1}, !- Construction Name
  ExteriorRoof,                           !- Intended Surface Type
  Metal;                                  !- Standards Construction Type

OS:Material,
  {a1e52c85-bbc5-4c49-b058-9cb32005c3f8}, !- Handle
  Metal Roofing,                          !- Name
  MediumSmooth,                           !- Roughness
  0.0015,                                 !- Thickness {m}
  45.006,                                 !- Conductivity {W/m-K}
  7680,                                   !- Density {kg/m3}
  418.4,                                  !- Specific Heat {J/kg-K}
  0.9,                                    !- Thermal Absorptance
  0.3,                                    !- Solar Absorptance
  0.3;                                    !- Visible Absorptance

OS:Material,
  {b35c1d52-89cd-43c0-b983-752936244558}, !- Handle
  Roof Insulation [19],                   !- Name
  MediumRough,                            !- Roughness
  0.1868,                                 !- Thickness {m}
  0.049,                                  !- Conductivity {W/m-K}
  265,                                    !- Density {kg/m3}
  836.800000000001,                       !- Specific Heat {J/kg-K}
  0.9,                                    !- Thermal Absorptance
  0.7,                                    !- Solar Absorptance
  0.7;                                    !- Visible Absorptance

OS:Construction,
  {683a8c47-a760-452f-bd60-9e013e96ef44}, !- Handle
  ASHRAE 189.1-2009 ExtRoof Metal ClimateZone 2-5, !- Name
  ,                                       !- Surface Rendering Name
  {a1e52c85-bbc5-4c49-b058-9cb32005c3f8}, !- Layer 1
  {174bf8f6-6206-4a45-9ee5-a640618509c5}; !- Layer 2

OS:StandardsInformation:Construction,
  {a07b265e-2717-4551-ab21-8b4ce605fd27}, !- Handle
  {683a8c47-a760-452f-bd60-9e013e96ef44}, !- Construction Name
  ExteriorRoof,                           !- Intended Surface Type
  Metal;                                  !- Standards Construction Type

OS:Material,
  {174bf8f6-6206-4a45-9ee5-a640618509c5}, !- Handle
  Roof Insulation [22],                   !- Name
  MediumRough,                            !- Roughness
  0.2358,                                 !- Thickness {m}
  0.049,                                  !- Conductivity {W/m-K}
  265,                                    !- Density {kg/m3}
  836.800000000001,                       !- Specific Heat {J/kg-K}
  0.9,                                    !- Thermal Absorptance
  0.7,                                    !- Solar Absorptance
  0.7;                                    !- Visible Absorptance

OS:Construction,
  {6e7a0757-4f6b-4648-8a59-178c143ad93b}, !- Handle
  ASHRAE 189.1-2009 ExtRoof Metal ClimateZone 6, !- Name
  ,                                       !- Surface Rendering Name
  {a1e52c85-bbc5-4c49-b058-9cb32005c3f8}, !- Layer 1
  {0c1f3da7-e79a-4516-a59d-c4aa9ba5b4bc}; !- Layer 2

OS:StandardsInformation:Construction,
  {0741d11f-3fdc-49b9-b172-97d1fdb6bc2e}, !- Handle
  {6e7a0757-4f6b-4648-8a59-178c143ad93b}, !- Construction Name
  ExteriorRoof,                           !- Intended Surface Type
  Metal;                                  !- Standards Construction Type

OS:Material,
  {0c1f3da7-e79a-4516-a59d-c4aa9ba5b4bc}, !- Handle
  Roof Insulation [25],                   !- Name
  MediumRough,                            !- Roughness
  0.263,                                  !- Thickness {m}
  0.049,                                  !- Conductivity {W/m-K}
  265,                                    !- Density {kg/m3}
  836.800000000001,                       !- Specific Heat {J/kg-K}
  0.9,                                    !- Thermal Absorptance
  0.7,                                    !- Solar Absorptance
  0.7;                                    !- Visible Absorptance

OS:Construction,
  {2a2a73e4-fb2a-4a22-a2c0-a9d1dd5b1d02}, !- Handle
  ASHRAE 189.1-2009 ExtRoof Metal ClimateZone 7-8, !- Name
  ,                                       !- Surface Rendering Name
  {a1e52c85-bbc5-4c49-b058-9cb32005c3f8}, !- Layer 1
  {bd80fb9b-5814-41d9-80db-ac6191178b16}; !- Layer 2

OS:StandardsInformation:Construction,
  {1ed0dbf0-7c8c-4a2e-a35f-6e42fefbd602}, !- Handle
  {2a2a73e4-fb2a-4a22-a2c0-a9d1dd5b1d02}, !- Construction Name
  ExteriorRoof,                           !- Intended Surface Type
  Metal;                                  !- Standards Construction Type

OS:Material,
  {bd80fb9b-5814-41d9-80db-ac6191178b16}, !- Handle
  Roof Insulation [27],                   !- Name
  MediumRough,                            !- Roughness
  0.297000000000001,                      !- Thickness {m}
  0.049,                                  !- Conductivity {W/m-K}
  265,                                    !- Density {kg/m3}
  836.800000000001,                       !- Specific Heat {J/kg-K}
  0.9,                                    !- Thermal Absorptance
  0.7,                                    !- Solar Absorptance
  0.7;                                    !- Visible Absorptance

OS:Construction,
  {d4ee3bde-1d56-4f09-bbaf-4ae5d2526aee}, !- Handle
  ASHRAE 189.1-2009 ExtWall Mass ClimateZone 1, !- Name
  ,                                       !- Surface Rendering Name
  {df1f2453-26e8-4780-93eb-30e86f5fafbc}, !- Layer 1
  {79f5886d-5677-44c2-b9f0-6dff2be57aee}, !- Layer 2
  {82f435d0-fbf9-45d7-9125-50d83727e16b}, !- Layer 3
  {cf3b90ff-3470-4f39-925f-3d29a1b3885f}; !- Layer 4

OS:StandardsInformation:Construction,
  {e0393652-3267-423b-82ba-1ff18c3f1ec1}, !- Handle
  {d4ee3bde-1d56-4f09-bbaf-4ae5d2526aee}, !- Construction Name
  ExteriorWall,                           !- Intended Surface Type
  Mass;                                   !- Standards Construction Type

OS:Material,
  {df1f2453-26e8-4780-93eb-30e86f5fafbc}, !- Handle
  1IN Stucco,                             !- Name
  Smooth,                                 !- Roughness
  0.0253,                                 !- Thickness {m}
  0.691799999999999,                      !- Conductivity {W/m-K}
  1858,                                   !- Density {kg/m3}
  836.999999999999,                       !- Specific Heat {J/kg-K}
  0.9,                                    !- Thermal Absorptance
  0.92,                                   !- Solar Absorptance
  0.92;                                   !- Visible Absorptance

OS:Material,
  {79f5886d-5677-44c2-b9f0-6dff2be57aee}, !- Handle
  8IN Concrete HW,                        !- Name
  MediumRough,                            !- Roughness
  0.2033,                                 !- Thickness {m}
  1.72959999999999,                       !- Conductivity {W/m-K}
  2242.99999999999,                       !- Density {kg/m3}
  836.999999999999,                       !- Specific Heat {J/kg-K}
  0.9,                                    !- Thermal Absorptance
  0.65,                                   !- Solar Absorptance
  0.65;                                   !- Visible Absorptance

OS:Material,
  {82f435d0-fbf9-45d7-9125-50d83727e16b}, !- Handle
  Wall Insulation [31],                   !- Name
  MediumRough,                            !- Roughness
  0.0337000000000001,                     !- Thickness {m}
  0.0432,                                 !- Conductivity {W/m-K}
  91,                                     !- Density {kg/m3}
  836.999999999999,                       !- Specific Heat {J/kg-K}
  0.9,                                    !- Thermal Absorptance
  0.5,                                    !- Solar Absorptance
  0.5;                                    !- Visible Absorptance

OS:Construction,
  {aacc3245-be1c-4205-bd21-8dd2d1a33847}, !- Handle
  ASHRAE 189.1-2009 ExtWall Mass ClimateZone 2, !- Name
  ,                                       !- Surface Rendering Name
  {df1f2453-26e8-4780-93eb-30e86f5fafbc}, !- Layer 1
  {79f5886d-5677-44c2-b9f0-6dff2be57aee}, !- Layer 2
  {7ce9fb0d-9d18-4940-9d45-f5bb45d0595a}, !- Layer 3
  {cf3b90ff-3470-4f39-925f-3d29a1b3885f}; !- Layer 4

OS:StandardsInformation:Construction,
  {fd1aa1b3-8842-4e19-9a2a-43023cf1a197}, !- Handle
  {aacc3245-be1c-4205-bd21-8dd2d1a33847}, !- Construction Name
  ExteriorWall,                           !- Intended Surface Type
  Mass;                                   !- Standards Construction Type

OS:Material,
  {7ce9fb0d-9d18-4940-9d45-f5bb45d0595a}, !- Handle
  Wall Insulation [35],                   !- Name
  MediumRough,                            !- Roughness
  0.0452,                                 !- Thickness {m}
  0.0432,                                 !- Conductivity {W/m-K}
  91,                                     !- Density {kg/m3}
  836.999999999999,                       !- Specific Heat {J/kg-K}
  0.9,                                    !- Thermal Absorptance
  0.5,                                    !- Solar Absorptance
  0.5;                                    !- Visible Absorptance

OS:Construction,
  {1cbf18cf-8f8e-4e93-9346-5cc7c229c50e}, !- Handle
  ASHRAE 189.1-2009 ExtWall Mass ClimateZone 3, !- Name
  ,                                       !- Surface Rendering Name
  {df1f2453-26e8-4780-93eb-30e86f5fafbc}, !- Layer 1
  {79f5886d-5677-44c2-b9f0-6dff2be57aee}, !- Layer 2
  {8a3bf680-7116-43de-b487-bb496d5a2287}, !- Layer 3
  {cf3b90ff-3470-4f39-925f-3d29a1b3885f}; !- Layer 4

OS:StandardsInformation:Construction,
  {6758907b-acf5-46a9-bc02-f4b6e6680405}, !- Handle
  {1cbf18cf-8f8e-4e93-9346-5cc7c229c50e}, !- Construction Name
  ExteriorWall,                           !- Intended Surface Type
  Mass;                                   !- Standards Construction Type

OS:Material,
  {8a3bf680-7116-43de-b487-bb496d5a2287}, !- Handle
  Wall Insulation [36],                   !- Name
  MediumRough,                            !- Roughness
  0.0565999999999999,                     !- Thickness {m}
  0.0432,                                 !- Conductivity {W/m-K}
  91,                                     !- Density {kg/m3}
  836.999999999999,                       !- Specific Heat {J/kg-K}
  0.9,                                    !- Thermal Absorptance
  0.5,                                    !- Solar Absorptance
  0.5;                                    !- Visible Absorptance

OS:Construction,
  {534a9f13-3fae-4f0a-af67-cd6d67bd2bf5}, !- Handle
  ASHRAE 189.1-2009 ExtWall Mass ClimateZone 4, !- Name
  ,                                       !- Surface Rendering Name
  {df1f2453-26e8-4780-93eb-30e86f5fafbc}, !- Layer 1
  {79f5886d-5677-44c2-b9f0-6dff2be57aee}, !- Layer 2
  {9bca624c-dde6-4da9-a73d-0f3e2771b15a}, !- Layer 3
  {cf3b90ff-3470-4f39-925f-3d29a1b3885f}; !- Layer 4

OS:StandardsInformation:Construction,
  {f9756634-98c8-436b-968a-d064ac2958f2}, !- Handle
  {534a9f13-3fae-4f0a-af67-cd6d67bd2bf5}, !- Construction Name
  ExteriorWall,                           !- Intended Surface Type
  Mass;                                   !- Standards Construction Type

OS:Material,
  {9bca624c-dde6-4da9-a73d-0f3e2771b15a}, !- Handle
  Wall Insulation [37],                   !- Name
  MediumRough,                            !- Roughness
  0.0680999999999999,                     !- Thickness {m}
  0.0432,                                 !- Conductivity {W/m-K}
  91,                                     !- Density {kg/m3}
  836.999999999999,                       !- Specific Heat {J/kg-K}
  0.9,                                    !- Thermal Absorptance
  0.5,                                    !- Solar Absorptance
  0.5;                                    !- Visible Absorptance

OS:Construction,
  {ce8b57c1-c6a9-4a69-8e34-1e139d30cf68}, !- Handle
  ASHRAE 189.1-2009 ExtWall Mass ClimateZone 5, !- Name
  ,                                       !- Surface Rendering Name
  {df1f2453-26e8-4780-93eb-30e86f5fafbc}, !- Layer 1
  {79f5886d-5677-44c2-b9f0-6dff2be57aee}, !- Layer 2
  {16d0417f-dcb1-4308-87d1-2c753bc8c61c}, !- Layer 3
  {cf3b90ff-3470-4f39-925f-3d29a1b3885f}; !- Layer 4

OS:StandardsInformation:Construction,
  {6902248e-81f5-4109-81d5-d8b4502f46d8}, !- Handle
  {ce8b57c1-c6a9-4a69-8e34-1e139d30cf68}, !- Construction Name
  ExteriorWall,                           !- Intended Surface Type
  Mass;                                   !- Standards Construction Type

OS:Material,
  {16d0417f-dcb1-4308-87d1-2c753bc8c61c}, !- Handle
  Wall Insulation [40],                   !- Name
  MediumRough,                            !- Roughness
  0.0793999999999999,                     !- Thickness {m}
  0.0432,                                 !- Conductivity {W/m-K}
  91,                                     !- Density {kg/m3}
  836.999999999999,                       !- Specific Heat {J/kg-K}
  0.9,                                    !- Thermal Absorptance
  0.5,                                    !- Solar Absorptance
  0.5;                                    !- Visible Absorptance

OS:Construction,
  {bfe0ea99-abed-4514-a91d-4ef396962b64}, !- Handle
  ASHRAE 189.1-2009 ExtWall Mass ClimateZone 6, !- Name
  ,                                       !- Surface Rendering Name
  {df1f2453-26e8-4780-93eb-30e86f5fafbc}, !- Layer 1
  {79f5886d-5677-44c2-b9f0-6dff2be57aee}, !- Layer 2
  {9128ef80-62d1-4d9b-bc46-471f3dc8a85c}, !- Layer 3
  {cf3b90ff-3470-4f39-925f-3d29a1b3885f}; !- Layer 4

OS:StandardsInformation:Construction,
  {2c5a611d-6e4a-4335-8fbd-b2b51990cbf9}, !- Handle
  {bfe0ea99-abed-4514-a91d-4ef396962b64}, !- Construction Name
  ExteriorWall,                           !- Intended Surface Type
  Mass;                                   !- Standards Construction Type

OS:Material,
  {9128ef80-62d1-4d9b-bc46-471f3dc8a85c}, !- Handle
  Wall Insulation [42],                   !- Name
  MediumRough,                            !- Roughness
  0.0913999999999999,                     !- Thickness {m}
  0.0432,                                 !- Conductivity {W/m-K}
  91,                                     !- Density {kg/m3}
  836.999999999999,                       !- Specific Heat {J/kg-K}
  0.9,                                    !- Thermal Absorptance
  0.5,                                    !- Solar Absorptance
  0.5;                                    !- Visible Absorptance

OS:Construction,
  {7f7596af-ed72-4163-b698-5a16903f70eb}, !- Handle
  ASHRAE 189.1-2009 ExtWall Mass ClimateZone 7-8, !- Name
  ,                                       !- Surface Rendering Name
  {df1f2453-26e8-4780-93eb-30e86f5fafbc}, !- Layer 1
  {79f5886d-5677-44c2-b9f0-6dff2be57aee}, !- Layer 2
  {949cc6f4-b3f9-48d0-9e67-c36be3d528b4}, !- Layer 3
  {cf3b90ff-3470-4f39-925f-3d29a1b3885f}; !- Layer 4

OS:StandardsInformation:Construction,
  {7f1d3fbe-d804-4d65-bb97-ca0fb7f3940e}, !- Handle
  {7f7596af-ed72-4163-b698-5a16903f70eb}, !- Construction Name
  ExteriorWall,                           !- Intended Surface Type
  Mass;                                   !- Standards Construction Type

OS:Material,
  {949cc6f4-b3f9-48d0-9e67-c36be3d528b4}, !- Handle
  Wall Insulation [44],                   !- Name
  MediumRough,                            !- Roughness
  0.1104,                                 !- Thickness {m}
  0.0432,                                 !- Conductivity {W/m-K}
  91,                                     !- Density {kg/m3}
  836.999999999999,                       !- Specific Heat {J/kg-K}
  0.9,                                    !- Thermal Absorptance
  0.5,                                    !- Solar Absorptance
  0.5;                                    !- Visible Absorptance

OS:Construction,
  {5a975781-a55c-4cd9-8746-48911deec856}, !- Handle
  ASHRAE 189.1-2009 ExtWall Mass ClimateZone alt-res 1, !- Name
  ,                                       !- Surface Rendering Name
  {df1f2453-26e8-4780-93eb-30e86f5fafbc}, !- Layer 1
  {79f5886d-5677-44c2-b9f0-6dff2be57aee}, !- Layer 2
  {7ce9fb0d-9d18-4940-9d45-f5bb45d0595a}, !- Layer 3
  {cf3b90ff-3470-4f39-925f-3d29a1b3885f}; !- Layer 4

OS:StandardsInformation:Construction,
  {36117f57-661f-42b2-a41c-ed862abbae5a}, !- Handle
  {5a975781-a55c-4cd9-8746-48911deec856}, !- Construction Name
  ExteriorWall,                           !- Intended Surface Type
  Mass;                                   !- Standards Construction Type

OS:Construction,
  {789975ce-6f94-4a94-97da-ced87a5a9755}, !- Handle
  ASHRAE 189.1-2009 ExtWall Mass ClimateZone alt-res 2, !- Name
  ,                                       !- Surface Rendering Name
  {df1f2453-26e8-4780-93eb-30e86f5fafbc}, !- Layer 1
  {79f5886d-5677-44c2-b9f0-6dff2be57aee}, !- Layer 2
  {8a3bf680-7116-43de-b487-bb496d5a2287}, !- Layer 3
  {cf3b90ff-3470-4f39-925f-3d29a1b3885f}; !- Layer 4

OS:StandardsInformation:Construction,
  {9ed5a5bc-cd36-429b-b8a7-94ddf0a86ade}, !- Handle
  {789975ce-6f94-4a94-97da-ced87a5a9755}, !- Construction Name
  ExteriorWall,                           !- Intended Surface Type
  Mass;                                   !- Standards Construction Type

OS:Construction,
  {3e320025-e213-4652-93b6-a6c9e4fc8601}, !- Handle
  ASHRAE 189.1-2009 ExtWall Mass ClimateZone alt-res 3, !- Name
  ,                                       !- Surface Rendering Name
  {df1f2453-26e8-4780-93eb-30e86f5fafbc}, !- Layer 1
  {79f5886d-5677-44c2-b9f0-6dff2be57aee}, !- Layer 2
  {9bca624c-dde6-4da9-a73d-0f3e2771b15a}, !- Layer 3
  {cf3b90ff-3470-4f39-925f-3d29a1b3885f}; !- Layer 4

OS:StandardsInformation:Construction,
  {9a63eb2c-a350-4365-939d-e2c46f51d907}, !- Handle
  {3e320025-e213-4652-93b6-a6c9e4fc8601}, !- Construction Name
  ExteriorWall,                           !- Intended Surface Type
  Mass;                                   !- Standards Construction Type

OS:Construction,
  {0dbec0af-16f5-4d3c-bfa2-d850764e63e6}, !- Handle
  ASHRAE 189.1-2009 ExtWall Mass ClimateZone alt-res 4, !- Name
  ,                                       !- Surface Rendering Name
  {df1f2453-26e8-4780-93eb-30e86f5fafbc}, !- Layer 1
  {79f5886d-5677-44c2-b9f0-6dff2be57aee}, !- Layer 2
  {16d0417f-dcb1-4308-87d1-2c753bc8c61c}, !- Layer 3
  {cf3b90ff-3470-4f39-925f-3d29a1b3885f}; !- Layer 4

OS:StandardsInformation:Construction,
  {0ab1bc9f-1893-46a1-b642-5f4434c677ee}, !- Handle
  {0dbec0af-16f5-4d3c-bfa2-d850764e63e6}, !- Construction Name
  ExteriorWall,                           !- Intended Surface Type
  Mass;                                   !- Standards Construction Type

OS:Construction,
  {4f3e085e-72ec-4850-a28e-29c369f2f349}, !- Handle
  ASHRAE 189.1-2009 ExtWall Mass ClimateZone alt-res 5, !- Name
  ,                                       !- Surface Rendering Name
  {df1f2453-26e8-4780-93eb-30e86f5fafbc}, !- Layer 1
  {79f5886d-5677-44c2-b9f0-6dff2be57aee}, !- Layer 2
  {9128ef80-62d1-4d9b-bc46-471f3dc8a85c}, !- Layer 3
  {cf3b90ff-3470-4f39-925f-3d29a1b3885f}; !- Layer 4

OS:StandardsInformation:Construction,
  {81a924e3-416c-4ea1-bdd1-6e5f71680ffa}, !- Handle
  {4f3e085e-72ec-4850-a28e-29c369f2f349}, !- Construction Name
  ExteriorWall,                           !- Intended Surface Type
  Mass;                                   !- Standards Construction Type

OS:Construction,
  {0093fb78-e1a6-42fe-962f-ef7d4f6cb52a}, !- Handle
  ASHRAE 189.1-2009 ExtWall Mass ClimateZone alt-res 6, !- Name
  ,                                       !- Surface Rendering Name
  {df1f2453-26e8-4780-93eb-30e86f5fafbc}, !- Layer 1
  {79f5886d-5677-44c2-b9f0-6dff2be57aee}, !- Layer 2
  {949cc6f4-b3f9-48d0-9e67-c36be3d528b4}, !- Layer 3
  {cf3b90ff-3470-4f39-925f-3d29a1b3885f}; !- Layer 4

OS:StandardsInformation:Construction,
  {46eeeebc-4f78-4515-b8eb-9d901f1d59e3}, !- Handle
  {0093fb78-e1a6-42fe-962f-ef7d4f6cb52a}, !- Construction Name
  ExteriorWall,                           !- Intended Surface Type
  Mass;                                   !- Standards Construction Type

OS:Construction,
  {917f70a5-6e34-40ba-b95f-ecc2299d60b0}, !- Handle
  ASHRAE 189.1-2009 ExtWall Mass ClimateZone alt-res 7, !- Name
  ,                                       !- Surface Rendering Name
  {df1f2453-26e8-4780-93eb-30e86f5fafbc}, !- Layer 1
  {79f5886d-5677-44c2-b9f0-6dff2be57aee}, !- Layer 2
  {949cc6f4-b3f9-48d0-9e67-c36be3d528b4}, !- Layer 3
  {cf3b90ff-3470-4f39-925f-3d29a1b3885f}; !- Layer 4

OS:StandardsInformation:Construction,
  {9af6822d-3852-483c-a8db-8a7afa0fdf22}, !- Handle
  {917f70a5-6e34-40ba-b95f-ecc2299d60b0}, !- Construction Name
  ExteriorWall,                           !- Intended Surface Type
  Mass;                                   !- Standards Construction Type

OS:Construction,
  {7064d211-5887-42d5-aed3-c0500917a09d}, !- Handle
  ASHRAE 189.1-2009 ExtWall Mass ClimateZone alt-res 8, !- Name