
OS:Version,
  {a3297a26-52ac-4642-aed7-34cd82141522}, !- Handle
  1.2.3;                                  !- Version Identifier

OS:Construction,
  {b3cc4aeb-d1f1-43c7-b3ae-248335c823db}, !- Handle
  ASHRAE 189.1-2009 AtticFloor ClimateZone 1-8, !- Name
  ,                                       !- Surface Rendering Name
  {707faa16-4830-4380-b6ed-3a13f4c1ff31}, !- Layer 1
  {29e7eee8-df19-46a2-91cf-f2b22e05985b}, !- Layer 2
  {707faa16-4830-4380-b6ed-3a13f4c1ff31}; !- Layer 3

OS:StandardsInformation:Construction,
  {97dfd725-2627-4120-9d45-5477f45f8b74}, !- Handle
  {b3cc4aeb-d1f1-43c7-b3ae-248335c823db}, !- Construction Name
  AtticFloor,                             !- Intended Surface Type
  WoodFramed;                             !- Standards Construction Type

OS:Material,
  {707faa16-4830-4380-b6ed-3a13f4c1ff31}, !- Handle
  1/2IN Gypsum,                           !- Name
  Smooth,                                 !- Roughness
  0.0127,                                 !- Thickness {m}
  0.16,                                   !- Conductivity {W/m-K}
  784.9,                                  !- Density {kg/m3}
  830.000000000001,                       !- Specific Heat {J/kg-K}
  0.9,                                    !- Thermal Absorptance
  0.92,                                   !- Solar Absorptance
  0.92;                                   !- Visible Absorptance

OS:Material,
  {29e7eee8-df19-46a2-91cf-f2b22e05985b}, !- Handle
  AtticFloor Insulation,                  !- Name
  MediumRough,                            !- Roughness
  0.2379,                                 !- Thickness {m}
  0.049,                                  !- Conductivity {W/m-K}
  265,                                    !- Density {kg/m3}
  836.800000000001,                       !- Specific Heat {J/kg-K}
  0.9,                                    !- Thermal Absorptance
  0.7,                                    !- Solar Absorptance
  0.7;                                    !- Visible Absorptance

OS:Construction,
  {a2f68328-16ce-40b3-8426-1df597188acc}, !- Handle
  ASHRAE 189.1-2009 ExtRoof IEAD ClimateZone 1, !- Name
  ,                                       !- Surface Rendering Name
  {b8a01dce-15ec-4101-a498-edd3d5329205}, !- Layer 1
  {378edfb5-fcb0-4e8f-a0b6-e5df7764b51b}, !- Layer 2
  {6aa65db5-5795-4a4d-8d2e-09e9ebcdfad4}; !- Layer 3

OS:StandardsInformation:Construction,
  {1be8a0b7-576a-4176-bfe9-4fe5ea1331e6}, !- Handle
  {a2f68328-16ce-40b3-8426-1df597188acc}, !- Construction Name
  ExteriorRoof,                           !- Intended Surface Type
  IEAD;                                   !- Standards Construction Type

OS:Material,
  {b8a01dce-15ec-4101-a498-edd3d5329205}, !- Handle
  Roof Membrane,                          !- Name
  VeryRough,                              !- Roughness
  0.0095,                                 !- Thickness {m}
  0.16,                                   !- Conductivity {W/m-K}
  1121.29,                                !- Density {kg/m3}
  1460,                                   !- Specific Heat {J/kg-K}
  0.9,                                    !- Thermal Absorptance
  0.7,                                    !- Solar Absorptance
  0.7;                                    !- Visible Absorptance

OS:Material,
  {378edfb5-fcb0-4e8f-a0b6-e5df7764b51b}, !- Handle
  Roof Insulation [18],                   !- Name
  MediumRough,                            !- Roughness
  0.1693,                                 !- Thickness {m}
  0.049,                                  !- Conductivity {W/m-K}
  265,                                    !- Density {kg/m3}
  836.800000000001,                       !- Specific Heat {J/kg-K}
  0.9,                                    !- Thermal Absorptance
  0.7,                                    !- Solar Absorptance
  0.7;                                    !- Visible Absorptance

OS:Material,
  {6aa65db5-5795-4a4d-8d2e-09e9ebcdfad4}, !- Handle
  Metal Decking,                          !- Name
  MediumSmooth,                           !- Roughness
  0.0015,                                 !- Thickness {m}
  45.006,                                 !- Conductivity {W/m-K}
  7680,                                   !- Density {kg/m3}
  418.4,                                  !- Specific Heat {J/kg-K}
  0.9,                                    !- Thermal Absorptance
  0.7,                                    !- Solar Absorptance
  0.3;                                    !- Visible Absorptance

OS:Construction,
  {c7d24386-ea6b-4fce-9137-2e3df5a45b8e}, !- Handle
  ASHRAE 189.1-2009 ExtRoof IEAD ClimateZone 2-5, !- Name
  ,                                       !- Surface Rendering Name
  {b8a01dce-15ec-4101-a498-edd3d5329205}, !- Layer 1
  {7a701f28-cbc0-4b60-9b88-c7db80ea8a78}, !- Layer 2
  {6aa65db5-5795-4a4d-8d2e-09e9ebcdfad4}; !- Layer 3

OS:StandardsInformation:Construction,
  {4af6c2cd-4c39-4b6f-b63d-ff864a5ad9c5}, !- Handle
  {c7d24386-ea6b-4fce-9137-2e3df5a45b8e}, !- Construction Name
  ExteriorRoof,                           !- Intended Surface Type
  IEAD;                                   !- Standards Construction Type

OS:Material,
  {7a701f28-cbc0-4b60-9b88-c7db80ea8a78}, !- Handle
  Roof Insulation [21],                   !- Name
  MediumRough,                            !- Roughness
  0.2105,                                 !- Thickness {m}
  0.049,                                  !- Conductivity {W/m-K}
  265,                                    !- Density {kg/m3}
  836.800000000001,                       !- Specific Heat {J/kg-K}
  0.9,                                    !- Thermal Absorptance
  0.7,                                    !- Solar Absorptance
  0.7;                                    !- Visible Absorptance

OS:Construction,
  {bdce7c7d-9528-463b-aad7-0b8fba14e8fa}, !- Handle
  ASHRAE 189.1-2009 ExtRoof IEAD ClimateZone 6, !- Name
  ,                                       !- Surface Rendering Name
  {b8a01dce-15ec-4101-a498-edd3d5329205}, !- Layer 1
  {ebdb7b8d-e7d9-41a4-b491-f44865c0ec56}, !- Layer 2
  {6aa65db5-5795-4a4d-8d2e-09e9ebcdfad4}; !- Layer 3

OS:StandardsInformation:Construction,
  {b45f74c6-56cc-41c3-8336-bed2fded3379}, !- Handle
  {bdce7c7d-9528-463b-aad7-0b8fba14e8fa}, !- Construction Name
  ExteriorRoof,                           !- Intended Surface Type
  IEAD;                                   !- Standards Construction Type

OS:Material,
  {ebdb7b8d-e7d9-41a4-b491-f44865c0ec56}, !- Handle
  Roof Insulation [24],                   !- Name
  MediumRough,                            !- Roughness
  0.260100000000001,                      !- Thickness {m}
  0.049,                                  !- Conductivity {W/m-K}
  265,                                    !- Density {kg/m3}
  836.800000000001,                       !- Specific Heat {J/kg-K}
  0.9,                                    !- Thermal Absorptance
  0.7,                                    !- Solar Absorptance
  0.7;                                    !- Visible Absorptance

OS:Construction,
  {19d49fba-a20f-4fb3-8826-39618536d847}, !- Handle
  ASHRAE 189.1-2009 ExtRoof IEAD ClimateZone 7-8, !- Name
  ,                                       !- Surface Rendering Name
  {b8a01dce-15ec-4101-a498-edd3d5329205}, !- Layer 1
  {925559ca-3604-4079-8ea7-79bc622b6da0}, !- Layer 2
  {6aa65db5-5795-4a4d-8d2e-09e9ebcdfad4}; !- Layer 3

OS:StandardsInformation:Construction,
  {e0386ba9-c43d-4c22-a70f-3b7095058ceb}, !- Handle
  {19d49fba-a20f-4fb3-8826-39618536d847}, !- Construction Name
  ExteriorRoof,                           !- Intended Surface Type
  IEAD;                                   !- Standards Construction Type

OS:Material,
  {925559ca-3604-4079-8ea7-79bc622b6da0}, !- Handle
  Roof Insulation [26],                   !- Name
  MediumRough,                            !- Roughness
  0.2941,                                 !- Thickness {m}
  0.049,                                  !- Conductivity {W/m-K}
  265,                                    !- Density {kg/m3}
  836.800000000001,                       !- Specific Heat {J/kg-K}
  0.9,                                    !- Thermal Absorptance
  0.7,                                    !- Solar Absorptance
  0.7;                                    !- Visible Absorptance

OS:Construction,
  {8e8f68b6-ea60-4c49-abbf-13522df03ef7}, !- Handle
  ASHRAE 189.1-2009 ExtRoof Metal ClimateZone 1, !- Name
  ,                                       !- Surface Rendering Name
  {bb6e1664-74a5-4e83-8515-85dc1e137872}, !- Layer 1
  {21350db9-5d73-4231-ba09-6d0196eb7328}; !- Layer 2

OS:StandardsInformation:Construction,
  {f8e0ef7a-f3dd-46f6-98ad-01c21dd54236}, !- Handle
  {8e8f68b6-ea60-4c49-abbf-13522df03ef7}, !- Construction Name
  ExteriorRoof,                           !- Intended Surface Type
  Metal;                                  !- Standards Construction Type

OS:Material,
  {bb6e1664-74a5-4e83-8515-85dc1e137872}, !- Handle
  Metal Roofing,                          !- Name
  MediumSmooth,                           !- Roughness
  0.0015,                                 !- Thickness {m}
  45.006,                                 !- Conductivity {W/m-K}
  7680,                                   !- Density {kg/m3}
  418.4,                                  !- Specific Heat {J/kg-K}
  0.9,                                    !- Thermal Absorptance
  0.3,                                    !- Solar Absorptance
  0.3;                                    !- Visible Absorptance

OS:Material,
  {21350db9-5d73-4231-ba09-6d0196eb7328}, !- Handle
  Roof Insulation [19],                   !- Name
  MediumRough,                            !- Roughness
  0.1868,                                 !- Thickness {m}
  0.049,                                  !- Conductivity {W/m-K}
  265,                                    !- Density {kg/m3}
  836.800000000001,                       !- Specific Heat {J/kg-K}
  0.9,                                    !- Thermal Absorptance
  0.7,                                    !- Solar Absorptance
  0.7;                                    !- Visible Absorptance

OS:Construction,
  {37ce4cc1-0cb8-4b49-ad1d-d7b6df8786bf}, !- Handle
  ASHRAE 189.1-2009 ExtRoof Metal ClimateZone 2-5, !- Name
  ,                                       !- Surface Rendering Name
  {bb6e1664-74a5-4e83-8515-85dc1e137872}, !- Layer 1
  {544724fb-af62-4b93-82af-f653b02602e4}; !- Layer 2

OS:StandardsInformation:Construction,
  {53471807-f751-4d3e-8d00-d1584d16c0d0}, !- Handle
  {37ce4cc1-0cb8-4b49-ad1d-d7b6df8786bf}, !- Construction Name
  ExteriorRoof,                           !- Intended Surface Type
  Metal;                                  !- Standards Construction Type

OS:Material,
  {544724fb-af62-4b93-82af-f653b02602e4}, !- Handle
  Roof Insulation [22],                   !- Name
  MediumRough,                            !- Roughness
  0.2358,                                 !- Thickness {m}
  0.049,                                  !- Conductivity {W/m-K}
  265,                                    !- Density {kg/m3}
  836.800000000001,                       !- Specific Heat {J/kg-K}
  0.9,                                    !- Thermal Absorptance
  0.7,                                    !- Solar Absorptance
  0.7;                                    !- Visible Absorptance

OS:Construction,
  {ccb4cc7b-6c75-4867-8457-54c55747d34b}, !- Handle
  ASHRAE 189.1-2009 ExtRoof Metal ClimateZone 6, !- Name
  ,                                       !- Surface Rendering Name
  {bb6e1664-74a5-4e83-8515-85dc1e137872}, !- Layer 1
  {8b15bd66-d55b-44bb-9f55-9cc4405a1690}; !- Layer 2

OS:StandardsInformation:Construction,
  {6f6c585d-2d7b-45cc-8482-6c25685862d7}, !- Handle
  {ccb4cc7b-6c75-4867-8457-54c55747d34b}, !- Construction Name
  ExteriorRoof,                           !- Intended Surface Type
  Metal;                                  !- Standards Construction Type

OS:Material,
  {8b15bd66-d55b-44bb-9f55-9cc4405a1690}, !- Handle
  Roof Insulation [25],                   !- Name
  MediumRough,                            !- Roughness
  0.263,                                  !- Thickness {m}
  0.049,                                  !- Conductivity {W/m-K}
  265,                                    !- Density {kg/m3}
  836.800000000001,                       !- Specific Heat {J/kg-K}
  0.9,                                    !- Thermal Absorptance
  0.7,                                    !- Solar Absorptance
  0.7;                                    !- Visible Absorptance

OS:Construction,
  {ba7b4a2c-ebe0-4885-84df-f553aab70221}, !- Handle
  ASHRAE 189.1-2009 ExtRoof Metal ClimateZone 7-8, !- Name
  ,                                       !- Surface Rendering Name
  {bb6e1664-74a5-4e83-8515-85dc1e137872}, !- Layer 1
  {28594f33-e9a0-414c-888c-ad7658f3a8a0}; !- Layer 2

OS:StandardsInformation:Construction,
  {ec299029-2e94-4cf6-bc9a-159a3ac2c5aa}, !- Handle
  {ba7b4a2c-ebe0-4885-84df-f553aab70221}, !- Construction Name
  ExteriorRoof,                           !- Intended Surface Type
  Metal;                                  !- Standards Construction Type

OS:Material,
  {28594f33-e9a0-414c-888c-ad7658f3a8a0}, !- Handle
  Roof Insulation [27],                   !- Name
  MediumRough,                            !- Roughness
  0.297000000000001,                      !- Thickness {m}
  0.049,                                  !- Conductivity {W/m-K}
  265,                                    !- Density {kg/m3}
  836.800000000001,                       !- Specific Heat {J/kg-K}
  0.9,                                    !- Thermal Absorptance
  0.7,                                    !- Solar Absorptance
  0.7;                                    !- Visible Absorptance

OS:Construction,
  {e6567b69-0d2e-4b5d-9e75-1ec642757a07}, !- Handle
  ASHRAE 189.1-2009 ExtWall Mass ClimateZone 1, !- Name
  ,                                       !- Surface Rendering Name
  {bec789a5-95f0-4981-bb16-8d43f050c0ae}, !- Layer 1
  {bc193e26-0f26-4c08-9598-90f7d9146ab7}, !- Layer 2
  {c6b8d615-b487-4ba3-aa30-91beb5f11739}, !- Layer 3
  {707faa16-4830-4380-b6ed-3a13f4c1ff31}; !- Layer 4

OS:StandardsInformation:Construction,
  {30543d91-9241-41e4-902f-897d43a0c52a}, !- Handle
  {e6567b69-0d2e-4b5d-9e75-1ec642757a07}, !- Construction Name
  ExteriorWall,                           !- Intended Surface Type
  Mass;                                   !- Standards Construction Type

OS:Material,
  {bec789a5-95f0-4981-bb16-8d43f050c0ae}, !- Handle
  1IN Stucco,                             !- Name
  Smooth,                                 !- Roughness
  0.0253,                                 !- Thickness {m}
  0.691799999999999,                      !- Conductivity {W/m-K}
  1858,                                   !- Density {kg/m3}
  836.999999999999,                       !- Specific Heat {J/kg-K}
  0.9,                                    !- Thermal Absorptance
  0.92,                                   !- Solar Absorptance
  0.92;                                   !- Visible Absorptance

OS:Material,
  {bc193e26-0f26-4c08-9598-90f7d9146ab7}, !- Handle
  8IN Concrete HW,                        !- Name
  MediumRough,                            !- Roughness
  0.2033,                                 !- Thickness {m}
  1.72959999999999,                       !- Conductivity {W/m-K}
  2242.99999999999,                       !- Density {kg/m3}
  836.999999999999,                       !- Specific Heat {J/kg-K}
  0.9,                                    !- Thermal Absorptance
  0.65,                                   !- Solar Absorptance
  0.65;                                   !- Visible Absorptance

OS:Material,
  {c6b8d615-b487-4ba3-aa30-91beb5f11739}, !- Handle
  Wall Insulation [31],                   !- Name
  MediumRough,                            !- Roughness
  0.0337000000000001,                     !- Thickness {m}
  0.0432,                                 !- Conductivity {W/m-K}
  91,                                     !- Density {kg/m3}
  836.999999999999,                       !- Specific Heat {J/kg-K}
  0.9,                                    !- Thermal Absorptance
  0.5,                                    !- Solar Absorptance
  0.5;                                    !- Visible Absorptance

OS:Construction,
  {b3a4a810-daf6-4ceb-8961-6430b0f24014}, !- Handle
  ASHRAE 189.1-2009 ExtWall Mass ClimateZone 2, !- Name
  ,                                       !- Surface Rendering Name
  {bec789a5-95f0-4981-bb16-8d43f050c0ae}, !- Layer 1
  {bc193e26-0f26-4c08-9598-90f7d9146ab7}, !- Layer 2
  {4f8369f6-dc7e-45fd-9343-6f19202de1f7}, !- Layer 3
  {707faa16-4830-4380-b6ed-3a13f4c1ff31}; !- Layer 4

OS:StandardsInformation:Construction,
  {7cebc903-bfd2-4eb7-8afd-4c32dc195d8c}, !- Handle
  {b3a4a810-daf6-4ceb-8961-6430b0f24014}, !- Construction Name
  ExteriorWall,                           !- Intended Surface Type
  Mass;                                   !- Standards Construction Type

OS:Material,
  {4f8369f6-dc7e-45fd-9343-6f19202de1f7}, !- Handle
  Wall Insulation [35],                   !- Name
  MediumRough,                            !- Roughness
  0.0452,                                 !- Thickness {m}
  0.0432,                                 !- Conductivity {W/m-K}
  91,                                     !- Density {kg/m3}
  836.999999999999,                       !- Specific Heat {J/kg-K}
  0.9,                                    !- Thermal Absorptance
  0.5,                                    !- Solar Absorptance
  0.5;                                    !- Visible Absorptance

OS:Construction,
  {0e8e9e38-ca53-4c58-8ac6-28009b0b582f}, !- Handle
  ASHRAE 189.1-2009 ExtWall Mass ClimateZone 3, !- Name
  ,                                       !- Surface Rendering Name
  {bec789a5-95f0-4981-bb16-8d43f050c0ae}, !- Layer 1
  {bc193e26-0f26-4c08-9598-90f7d9146ab7}, !- Layer 2
  {67341578-7ead-485f-aef0-354f93eeb7d9}, !- Layer 3
  {707faa16-4830-4380-b6ed-3a13f4c1ff31}; !- Layer 4

OS:StandardsInformation:Construction,
  {da340e02-f2b6-475a-9b6b-a184fc1fb2c4}, !- Handle
  {0e8e9e38-ca53-4c58-8ac6-28009b0b582f}, !- Construction Name
  ExteriorWall,                           !- Intended Surface Type
  Mass;                                   !- Standards Construction Type

OS:Material,
  {67341578-7ead-485f-aef0-354f93eeb7d9}, !- Handle
  Wall Insulation [36],                   !- Name
  MediumRough,                            !- Roughness
  0.0565999999999999,                     !- Thickness {m}
  0.0432,                                 !- Conductivity {W/m-K}
  91,                                     !- Density {kg/m3}
  836.999999999999,                       !- Specific Heat {J/kg-K}
  0.9,                                    !- Thermal Absorptance
  0.5,                                    !- Solar Absorptance
  0.5;                                    !- Visible Absorptance

OS:Construction,
  {0b89aba1-635b-4ab7-b2be-f11e73721932}, !- Handle
  ASHRAE 189.1-2009 ExtWall Mass ClimateZone 4, !- Name
  ,                                       !- Surface Rendering Name
  {bec789a5-95f0-4981-bb16-8d43f050c0ae}, !- Layer 1
  {bc193e26-0f26-4c08-9598-90f7d9146ab7}, !- Layer 2
  {99309784-9100-4317-b285-f10cbed61c40}, !- Layer 3
  {707faa16-4830-4380-b6ed-3a13f4c1ff31}; !- Layer 4

OS:StandardsInformation:Construction,
  {190a360c-cee2-4afe-9356-cdf7aac67a81}, !- Handle
  {0b89aba1-635b-4ab7-b2be-f11e73721932}, !- Construction Name
  ExteriorWall,                           !- Intended Surface Type
  Mass;                                   !- Standards Construction Type

OS:Material,
  {99309784-9100-4317-b285-f10cbed61c40}, !- Handle
  Wall Insulation [37],                   !- Name
  MediumRough,                            !- Roughness
  0.0680999999999999,                     !- Thickness {m}
  0.0432,                                 !- Conductivity {W/m-K}
  91,                                     !- Density {kg/m3}
  836.999999999999,                       !- Specific Heat {J/kg-K}
  0.9,                                    !- Thermal Absorptance
  0.5,                                    !- Solar Absorptance
  0.5;                                    !- Visible Absorptance

OS:Construction,
  {caae3fca-3e7e-4aee-a3a6-e319210f8940}, !- Handle
  ASHRAE 189.1-2009 ExtWall Mass ClimateZone 5, !- Name
  ,                                       !- Surface Rendering Name
  {bec789a5-95f0-4981-bb16-8d43f050c0ae}, !- Layer 1
  {bc193e26-0f26-4c08-9598-90f7d9146ab7}, !- Layer 2
  {af121baf-a282-4850-8d09-eab6b429fc7e}, !- Layer 3
  {707faa16-4830-4380-b6ed-3a13f4c1ff31}; !- Layer 4

OS:StandardsInformation:Construction,
  {c2bf6fbe-e352-4493-aa5e-75558daaf72a}, !- Handle
  {caae3fca-3e7e-4aee-a3a6-e319210f8940}, !- Construction Name
  ExteriorWall,                           !- Intended Surface Type
  Mass;                                   !- Standards Construction Type

OS:Material,
  {af121baf-a282-4850-8d09-eab6b429fc7e}, !- Handle
  Wall Insulation [40],                   !- Name
  MediumRough,                            !- Roughness
  0.0793999999999999,                     !- Thickness {m}
  0.0432,                                 !- Conductivity {W/m-K}
  91,                                     !- Density {kg/m3}
  836.999999999999,                       !- Specific Heat {J/kg-K}
  0.9,                                    !- Thermal Absorptance
  0.5,                                    !- Solar Absorptance
  0.5;                                    !- Visible Absorptance

OS:Construction,
  {8e66116e-b174-4bc8-94d0-716d0014a9dc}, !- Handle
  ASHRAE 189.1-2009 ExtWall Mass ClimateZone 6, !- Name
  ,                                       !- Surface Rendering Name
  {bec789a5-95f0-4981-bb16-8d43f050c0ae}, !- Layer 1
  {bc193e26-0f26-4c08-9598-90f7d9146ab7}, !- Layer 2
  {9679857d-a1c2-436a-8df3-37274953ffa5}, !- Layer 3
  {707faa16-4830-4380-b6ed-3a13f4c1ff31}; !- Layer 4

OS:StandardsInformation:Construction,
  {3ceb1c84-a6ab-4f9e-9dd4-7b8ddf899630}, !- Handle
  {8e66116e-b174-4bc8-94d0-716d0014a9dc}, !- Construction Name
  ExteriorWall,                           !- Intended Surface Type
  Mass;                                   !- Standards Construction Type

OS:Material,
  {9679857d-a1c2-436a-8df3-37274953ffa5}, !- Handle
  Wall Insulation [42],                   !- Name
  MediumRough,                            !- Roughness
  0.0913999999999999,                     !- Thickness {m}
  0.0432,                                 !- Conductivity {W/m-K}
  91,                                     !- Density {kg/m3}
  836.999999999999,                       !- Specific Heat {J/kg-K}
  0.9,                                    !- Thermal Absorptance
  0.5,                                    !- Solar Absorptance
  0.5;                                    !- Visible Absorptance

OS:Construction,
  {18830e0a-66e4-4c22-b922-f5a891fae8ba}, !- Handle
  ASHRAE 189.1-2009 ExtWall Mass ClimateZone 7-8, !- Name
  ,                                       !- Surface Rendering Name
  {bec789a5-95f0-4981-bb16-8d43f050c0ae}, !- Layer 1
  {bc193e26-0f26-4c08-9598-90f7d9146ab7}, !- Layer 2
  {42552309-da01-4e1f-94fa-dc288ab5ecca}, !- Layer 3
  {707faa16-4830-4380-b6ed-3a13f4c1ff31}; !- Layer 4

OS:StandardsInformation:Construction,
  {f3a53514-80af-4f00-9dd7-70f4778970e5}, !- Handle
  {18830e0a-66e4-4c22-b922-f5a891fae8ba}, !- Construction Name
  ExteriorWall,                           !- Intended Surface Type
  Mass;                                   !- Standards Construction Type

OS:Material,
  {42552309-da01-4e1f-94fa-dc288ab5ecca}, !- Handle
  Wall Insulation [44],                   !- Name
  MediumRough,                            !- Roughness
  0.1104,                                 !- Thickness {m}
  0.0432,                                 !- Conductivity {W/m-K}
  91,                                     !- Density {kg/m3}
  836.999999999999,                       !- Specific Heat {J/kg-K}
  0.9,                                    !- Thermal Absorptance
  0.5,                                    !- Solar Absorptance
  0.5;                                    !- Visible Absorptance

OS:Construction,
  {f006d946-c256-40ec-86a4-7a602df2fe76}, !- Handle
  ASHRAE 189.1-2009 ExtWall Mass ClimateZone alt-res 1, !- Name
  ,                                       !- Surface Rendering Name
  {bec789a5-95f0-4981-bb16-8d43f050c0ae}, !- Layer 1
  {bc193e26-0f26-4c08-9598-90f7d9146ab7}, !- Layer 2
  {4f8369f6-dc7e-45fd-9343-6f19202de1f7}, !- Layer 3
  {707faa16-4830-4380-b6ed-3a13f4c1ff31}; !- Layer 4

OS:StandardsInformation:Construction,
  {cec5ddc5-20f1-4988-beb9-b4beea02538d}, !- Handle
  {f006d946-c256-40ec-86a4-7a602df2fe76}, !- Construction Name
  ExteriorWall,                           !- Intended Surface Type
  Mass;                                   !- Standards Construction Type

OS:Construction,
  {26e68f99-ab50-4ae4-92c6-c45b723b8034}, !- Handle
  ASHRAE 189.1-2009 ExtWall Mass ClimateZone alt-res 2, !- Name
  ,                                       !- Surface Rendering Name
  {bec789a5-95f0-4981-bb16-8d43f050c0ae}, !- Layer 1
  {bc193e26-0f26-4c08-9598-90f7d9146ab7}, !- Layer 2
  {67341578-7ead-485f-aef0-354f93eeb7d9}, !- Layer 3
  {707faa16-4830-4380-b6ed-3a13f4c1ff31}; !- Layer 4

OS:StandardsInformation:Construction,
  {050578bd-3931-4b29-b837-fc12d19b32f8}, !- Handle
  {26e68f99-ab50-4ae4-92c6-c45b723b8034}, !- Construction Name
  ExteriorWall,                           !- Intended Surface Type
  Mass;                                   !- Standards Construction Type

OS:Construction,
  {44cc5b0f-5777-41bf-9dee-b39099452160}, !- Handle
  ASHRAE 189.1-2009 ExtWall Mass ClimateZone alt-res 3, !- Name
  ,                                       !- Surface Rendering Name
  {bec789a5-95f0-4981-bb16-8d43f050c0ae}, !- Layer 1
  {bc193e26-0f26-4c08-9598-90f7d9146ab7}, !- Layer 2
  {99309784-9100-4317-b285-f10cbed61c40}, !- Layer 3
  {707faa16-4830-4380-b6ed-3a13f4c1ff31}; !- Layer 4

OS:StandardsInformation:Construction,
  {db432018-004e-4f82-a95e-00f0be6c5de9}, !- Handle
  {44cc5b0f-5777-41bf-9dee-b39099452160}, !- Construction Name
  ExteriorWall,                           !- Intended Surface Type
  Mass;                                   !- Standards Construction Type

OS:Construction,
  {9712182f-bf48-4f5a-be93-37ca08b9f964}, !- Handle
  ASHRAE 189.1-2009 ExtWall Mass ClimateZone alt-res 4, !- Name
  ,                                       !- Surface Rendering Name
  {bec789a5-95f0-4981-bb16-8d43f050c0ae}, !- Layer 1
  {bc193e26-0f26-4c08-9598-90f7d9146ab7}, !- Layer 2
  {af121baf-a282-4850-8d09-eab6b429fc7e}, !- Layer 3
  {707faa16-4830-4380-b6ed-3a13f4c1ff31}; !- Layer 4

OS:StandardsInformation:Construction,
  {be307a5c-abfc-4cfb-8de2-eef4e3f0188e}, !- Handle
  {9712182f-bf48-4f5a-be93-37ca08b9f964}, !- Construction Name
  ExteriorWall,                           !- Intended Surface Type
  Mass;                                   !- Standards Construction Type

OS:Construction,
  {69b371c6-97d9-41de-bbb7-e80e1144f788}, !- Handle
  ASHRAE 189.1-2009 ExtWall Mass ClimateZone alt-res 5, !- Name
  ,                                       !- Surface Rendering Name
  {bec789a5-95f0-4981-bb16-8d43f050c0ae}, !- Layer 1
  {bc193e26-0f26-4c08-9598-90f7d9146ab7}, !- Layer 2
  {9679857d-a1c2-436a-8df3-37274953ffa5}, !- Layer 3
  {707faa16-4830-4380-b6ed-3a13f4c1ff31}; !- Layer 4

OS:StandardsInformation:Construction,
  {9329d5f5-0cb6-40e8-a527-1af7c0807c7b}, !- Handle
  {69b371c6-97d9-41de-bbb7-e80e1144f788}, !- Construction Name
  ExteriorWall,                           !- Intended Surface Type
  Mass;                                   !- Standards Construction Type

OS:Construction,
  {3520e18d-dfb7-4358-91d0-a298db04fd8c}, !- Handle
  ASHRAE 189.1-2009 ExtWall Mass ClimateZone alt-res 6, !- Name
  ,                                       !- Surface Rendering Name
  {bec789a5-95f0-4981-bb16-8d43f050c0ae}, !- Layer 1
  {bc193e26-0f26-4c08-9598-90f7d9146ab7}, !- Layer 2
  {42552309-da01-4e1f-94fa-dc288ab5ecca}, !- Layer 3
  {707faa16-4830-4380-b6ed-3a13f4c1ff31}; !- Layer 4

OS:StandardsInformation:Construction,
  {e352c571-1671-4e52-9347-5dfed9cd2c00}, !- Handle
  {3520e18d-dfb7-4358-91d0-a298db04fd8c}, !- Construction Name
  ExteriorWall,                           !- Intended Surface Type
  Mass;                                   !- Standards Construction Type

OS:Construction,
  {6e8dc9de-cac6-4421-9b48-0c3fbecf6f69}, !- Handle
  ASHRAE 189.1-2009 ExtWall Mass ClimateZone alt-res 7, !- Name
  ,                                       !- Surface Rendering Name
  {bec789a5-95f0-4981-bb16-8d43f050c0ae}, !- Layer 1
  {bc193e26-0f26-4c08-9598-90f7d9146ab7}, !- Layer 2
  {42552309-da01-4e1f-94fa-dc288ab5ecca}, !- Layer 3
  {707faa16-4830-4380-b6ed-3a13f4c1ff31}; !- Layer 4

OS:StandardsInformation:Construction,
  {d1c1388c-a72e-43c1-9491-c4be2ad400f2}, !- Handle
  {6e8dc9de-cac6-4421-9b48-0c3fbecf6f69}, !- Construction Name
  ExteriorWall,                           !- Intended Surface Type
  Mass;                                   !- Standards Construction Type

OS:Construction,
  {2ade6419-a45f-40bd-80fa-c6236e2cd4c6}, !- Handle
  ASHRAE 189.1-2009 ExtWall Mass ClimateZone alt-res 8, !- Name