
OS:Version,
  {8265c1ea-df99-47db-98ea-d76b58d30e9a}, !- Handle
  0.11.5;                                 !- Version Identifier

OS:Schedule:Constant,
  {50493d31-b952-4f0a-b577-e73d5bec5843}, !- Handle
  Always On Discrete,                     !- Name
  {4dcb7b3d-745f-4c65-b09f-e35c812212de}, !- Schedule Type Limits Name
  1;                                      !- Value

OS:ScheduleTypeLimits,
  {4dcb7b3d-745f-4c65-b09f-e35c812212de}, !- Handle
  Always On Discrete Limits,              !- Name
  0,                                      !- Lower Limit Value {BasedOnField A4}
  1,                                      !- Upper Limit Value {BasedOnField A4}
  Discrete,                               !- Numeric Type
  Availability;                           !- Unit Type

OS:Building,
  {c499957f-e724-4d6c-8354-6b15375a70aa}, ! Handle
  Primary School,                         ! Name
  ,                                       ! Building Type
  -0,                                     ! North Axis
  ,                                       ! Nominal Floor to Floor Height
  {5fdc6902-6bc7-4f7b-8d8c-2a3625138d15}, ! Space Type Name
  {15486259-0d1b-44e6-8877-795b022928f6}, ! Default Construction Set Name
  ;                                       ! Default Schedule Set Name

OS:Construction,
  {da0a9c19-bb57-42b9-a5d6-cbb453c0f4be}, ! Handle
  000 AtticRoof ClimateZone 1-8,          ! Name
  {6e477626-cba3-416c-8fa9-11958d48e487}, ! Surface Rendering Name
  {42fbe718-f606-4ef7-93e6-12d1c77ce650}, ! Layer 1
  {9c4024a4-a3d8-4eca-b921-57bf7c90959c}; ! Layer 2

OS:Construction,
  {dce2379c-a5ff-4ef3-80a2-701790d14358}, ! Handle
  000 ExtSlabCarpet 4in ClimateZone 1-8,  ! Name
  {ecfa81ca-7382-4230-98df-9dff21abaf03}, ! Surface Rendering Name
  {7452ad07-1048-48c0-9faf-246c5a991fd7}, ! Layer 1
  {36e62389-026f-4c3f-833b-f95697048797}; ! Layer 2

OS:Construction,
  {c138a427-289b-4749-acb6-a01a4a8f1b39}, ! Handle
  000 ExtSlabCarpet 8in ClimateZone 1-8,  ! Name
  {0518aa7e-0928-46be-9853-4ebdec4a0663}, ! Surface Rendering Name
  {cf936508-ae39-4f61-96d6-0c1159ca94ac}, ! Layer 1
  {36e62389-026f-4c3f-833b-f95697048797}; ! Layer 2

OS:Construction,
  {dcb60931-8ce9-4278-ab20-78610ba50460}, ! Handle
  000 ExtSlab 4in ClimateZone 1-8,        ! Name
  {01821460-de97-4516-b8d6-92019d426e99}, ! Surface Rendering Name
  {7452ad07-1048-48c0-9faf-246c5a991fd7}; ! Layer 1

OS:Construction,
  {46ca3ca7-119c-40a0-ba86-bd0bbf90c1fe}, ! Handle
  000 ExtSlab 8in ClimateZone 1-8,        ! Name
  {e212e314-4e9d-4195-816a-cf65603a2e50}, ! Surface Rendering Name
  {cf936508-ae39-4f61-96d6-0c1159ca94ac}; ! Layer 1

OS:Construction,
  {744cec07-4526-4703-b2c0-1ffee996b328}, ! Handle
  000 Exterior Door,                      ! Name
  {d915b165-a84c-4193-9f28-bebe97c01591}, ! Surface Rendering Name
  {9106a0e1-939d-4dec-ac4d-7fad3e78a5b8}, ! Layer 1
  {b7b29a34-b470-4fce-9c20-6c5d510ab765}; ! Layer 2

OS:Construction,
  {dc9186e5-1f8b-4f92-be15-364003b8dc0f}, ! Handle
  000 Exterior Floor,                     ! Name
  {9b5ebb42-baf6-44a0-ace8-e431fde57673}, ! Surface Rendering Name
  {d8e35101-a10c-4bd9-b9db-148746f7b936}, ! Layer 1
  {280cbd01-22e3-4d69-9efe-291b49f65592}; ! Layer 2

OS:Construction,
  {ba683833-dd8b-4403-b95a-1a4b4edf0fda}, ! Handle
  000 Exterior Roof,                      ! Name
  {775e87ae-1fbd-4b3c-8f70-cfe5280305cd}, ! Surface Rendering Name
  {7dfde206-fc96-4a24-975a-a6a956ee1664}, ! Layer 1
  {63cf6010-d8da-4cce-ad4a-e587f4f98e30}, ! Layer 2
  {96ac13bf-304b-40f2-b22c-d486b2f8204c}; ! Layer 3

OS:Construction,
  {506ab4cc-1897-40f5-a621-e5ceedc6c41e}, ! Handle
  000 Exterior Wall,                      ! Name
  {24374864-1a4b-48aa-9ffb-b2f854827f93}, ! Surface Rendering Name
  {26a2ddc9-fdc5-4ce2-9b39-b0a22a8d82a1}, ! Layer 1
  {280cbd01-22e3-4d69-9efe-291b49f65592}, ! Layer 2
  {d8e35101-a10c-4bd9-b9db-148746f7b936}, ! Layer 3
  {d4c05300-971c-4bb7-89cb-b1d78652cc09}, ! Layer 4
  {d2967a99-4cb6-45b5-9517-f2bf1d1db12f}; ! Layer 5

OS:Construction,
  {df4da930-86e5-48a4-962a-18eaffcea66d}, ! Handle
  000 Exterior Window,                    ! Name
  {ce205436-73d8-40a8-878a-dd604324942b}, ! Surface Rendering Name
  {c509ebb8-9f57-483d-b97c-4d2c9eea5251}, ! Layer 1
  {45e6e977-19de-47d1-bdad-42f87e5d4704}, ! Layer 2
  {c509ebb8-9f57-483d-b97c-4d2c9eea5251}; ! Layer 3

OS:Construction,
  {639ed2d6-84af-4fae-89ed-60783bec4fed}, ! Handle
  000 Interior Ceiling,                   ! Name
  {d1522ab3-02ac-4e1f-886f-df48f0551987}, ! Surface Rendering Name
  {7dfde206-fc96-4a24-975a-a6a956ee1664}, ! Layer 1
  {63cf6010-d8da-4cce-ad4a-e587f4f98e30}, ! Layer 2
  {96ac13bf-304b-40f2-b22c-d486b2f8204c}; ! Layer 3

OS:Construction,
  {479db337-e776-4389-b2ef-9fa76dd60cc3}, ! Handle
  000 Interior Door,                      ! Name
  {311bb898-443c-46d4-83e4-cfbc0e2ad80d}, ! Surface Rendering Name
  {24ff4ee3-b9e9-4cef-a2a3-d2dbadfc442a}; ! Layer 1

OS:Construction,
  {7ec4d8b3-510f-4488-8bd7-64cb1cf00f02}, ! Handle
  000 Interior Floor,                     ! Name
  {83c5e00b-b818-4e0b-8adb-b7f0676734a0}, ! Surface Rendering Name
  {96ac13bf-304b-40f2-b22c-d486b2f8204c}, ! Layer 1
  {63cf6010-d8da-4cce-ad4a-e587f4f98e30}, ! Layer 2
  {7dfde206-fc96-4a24-975a-a6a956ee1664}; ! Layer 3

OS:Construction,
  {84b47802-1f6f-4bb5-9ab6-a87c31110bfd}, ! Handle
  000 Interior Partition,                 ! Name
  {252cc75a-0c74-4d48-bbee-a4de421d39db}, ! Surface Rendering Name
  {24ff4ee3-b9e9-4cef-a2a3-d2dbadfc442a}; ! Layer 1

OS:Construction,
  {a8a3d188-b7b3-4088-8374-b6df6061bd04}, ! Handle
  000 Interior Wall,                      ! Name
  {afcd22d5-f704-4e7e-8ad0-ff78b0c586f4}, ! Surface Rendering Name
  {d2967a99-4cb6-45b5-9517-f2bf1d1db12f}, ! Layer 1
  {d4c05300-971c-4bb7-89cb-b1d78652cc09}, ! Layer 2
  {d2967a99-4cb6-45b5-9517-f2bf1d1db12f}; ! Layer 3

OS:Construction,
  {3ab1b49b-bc3b-4a7f-9906-26bf04c7c637}, ! Handle
  000 Interior Window,                    ! Name
  {964192d0-3122-438d-bf36-a424826c2502}, ! Surface Rendering Name
  {c509ebb8-9f57-483d-b97c-4d2c9eea5251}; ! Layer 1

OS:Construction,
  {ca1d7741-2bc2-4073-accb-fb79553d7e75}, ! Handle
  ASHRAE 189.1-2009 AtticFloor ClimateZone 1-8, ! Name
  {8d440e2b-ef08-499f-9884-b4c0a4bdbca6}, ! Surface Rendering Name
  {ca6276a3-6aea-4e41-a4ca-df8a266cdd35}, ! Layer 1
  {dab65cf1-bae0-4818-84b0-838cd56d3c10}, ! Layer 2
  {ca6276a3-6aea-4e41-a4ca-df8a266cdd35}; ! Layer 3

OS:Construction,
  {011f266d-dce4-49a2-899e-02590dc6e488}, ! Handle
  ASHRAE 189.1-2009 ExtRoof IEAD ClimateZone 1, ! Name
  {93ca48ea-2ddc-41ce-9846-70551e6a4196}, ! Surface Rendering Name
  {42fbe718-f606-4ef7-93e6-12d1c77ce650}, ! Layer 1
  {d3cef7b9-e1c1-465c-a7e3-429618d91189}, ! Layer 2
  {9c4024a4-a3d8-4eca-b921-57bf7c90959c}; ! Layer 3

OS:Construction,
  {2a0a63ae-23c8-4ee6-b35a-af5ad93e9ee7}, ! Handle
  ASHRAE 189.1-2009 ExtRoof IEAD ClimateZone 2-5, ! Name
  {be5c3d1d-94e1-468f-87b2-9a8c3ab7454d}, ! Surface Rendering Name
  {42fbe718-f606-4ef7-93e6-12d1c77ce650}, ! Layer 1
  {400a9bc9-735d-47d5-a64f-b733862aa635}, ! Layer 2
  {9c4024a4-a3d8-4eca-b921-57bf7c90959c}; ! Layer 3

OS:Construction,
  {ec57f825-d534-4949-95eb-4f5b0abebc79}, ! Handle
  ASHRAE 189.1-2009 ExtRoof IEAD ClimateZone 6, ! Name
  {7575f28a-712f-4b0a-8a4c-07031dd6462c}, ! Surface Rendering Name
  {42fbe718-f606-4ef7-93e6-12d1c77ce650}, ! Layer 1
  {8f9775e0-350e-4f43-885f-7e0105cccf75}, ! Layer 2
  {9c4024a4-a3d8-4eca-b921-57bf7c90959c}; ! Layer 3

OS:Construction,
  {29aeef26-940c-4df8-bf97-11f7d897a767}, ! Handle
  ASHRAE 189.1-2009 ExtRoof IEAD ClimateZone 7-8, ! Name
  {6aba1f8f-f335-45bc-9c87-3d7b46ef7d4a}, ! Surface Rendering Name
  {42fbe718-f606-4ef7-93e6-12d1c77ce650}, ! Layer 1
  {fc3902ac-c888-4eeb-bd7b-02a358750fd0}, ! Layer 2
  {9c4024a4-a3d8-4eca-b921-57bf7c90959c}; ! Layer 3

OS:Construction,
  {9ee1834a-0b03-4e81-b181-11fd518650e4}, ! Handle
  ASHRAE 189.1-2009 ExtRoof Metal ClimateZone 1, ! Name
  {8d7b3c35-b0e1-4094-a3f0-1cbb5bb21fce}, ! Surface Rendering Name
  {9aa9da09-d002-4f8c-b266-b7368ed8954f}, ! Layer 1
  {bbd85387-a2c2-4a58-900d-1fde9abe7cd6}; ! Layer 2

OS:Construction,
  {10cd8111-67dc-4814-b6a5-a800f83ed51a}, ! Handle
  ASHRAE 189.1-2009 ExtRoof Metal ClimateZone 2-5, ! Name
  {80df7101-8f53-4174-9880-7e6d826af7b4}, ! Surface Rendering Name
  {9aa9da09-d002-4f8c-b266-b7368ed8954f}, ! Layer 1
  {e3c43071-bd70-41a7-89ac-44d9ee74bb18}; ! Layer 2

OS:Construction,
  {b6943330-07fe-4421-ac7c-c2dedc1342a2}, ! Handle
  ASHRAE 189.1-2009 ExtRoof Metal ClimateZone 6, ! Name
  {abbc8cb3-f9ef-418c-b299-a0522aef5eee}, ! Surface Rendering Name
  {9aa9da09-d002-4f8c-b266-b7368ed8954f}, ! Layer 1
  {5c825140-5589-4906-88ff-9de72254243b}; ! Layer 2

OS:Construction,
  {805ae402-76b0-4006-ac7d-89ee6494780e}, ! Handle
  ASHRAE 189.1-2009 ExtRoof Metal ClimateZone 7-8, ! Name
  {92e4db2f-b65f-4d98-91dc-78d5efdc33c1}, ! Surface Rendering Name
  {9aa9da09-d002-4f8c-b266-b7368ed8954f}, ! Layer 1
  {cce05df3-c08c-4a87-a908-1d002e5f2668}; ! Layer 2

OS:Construction,
  {6ebd3c51-78d1-4a35-8676-47cea2455764}, ! Handle
  ASHRAE 189.1-2009 ExtWall Mass ClimateZone 1, ! Name
  {1a5c8ad7-d847-4639-a06d-37b6202d47c8}, ! Surface Rendering Name
  {c35ddc00-9a3a-4dbd-b4e7-908e8cfad979}, ! Layer 1
  {803e948f-b280-4a8f-b3b9-23e2ec13e482}, ! Layer 2
  {ab7b3f52-460c-4f83-9eee-f3e4a5b6fb95}, ! Layer 3
  {ca6276a3-6aea-4e41-a4ca-df8a266cdd35}; ! Layer 4

OS:Construction,
  {3972b933-1d4f-4336-8a6f-d7342698fd80}, ! Handle
  ASHRAE 189.1-2009 ExtWall Mass ClimateZone 2, ! Name
  {8c1d2520-9c81-40cc-95e8-2f68dd753efc}, ! Surface Rendering Name
  {c35ddc00-9a3a-4dbd-b4e7-908e8cfad979}, ! Layer 1
  {803e948f-b280-4a8f-b3b9-23e2ec13e482}, ! Layer 2
  {951599cb-b42f-45f2-8526-8a6e2a9d96f0}, ! Layer 3
  {ca6276a3-6aea-4e41-a4ca-df8a266cdd35}; ! Layer 4

OS:Construction,
  {db85cc03-7f86-4ff4-bcbd-3ac0f629abe5}, ! Handle
  ASHRAE 189.1-2009 ExtWall Mass ClimateZone 3, ! Name
  {d382044d-e1e3-484f-9035-24bbe498a44e}, ! Surface Rendering Name
  {c35ddc00-9a3a-4dbd-b4e7-908e8cfad979}, ! Layer 1
  {803e948f-b280-4a8f-b3b9-23e2ec13e482}, ! Layer 2
  {fb5ada6c-222a-438f-97ef-4eee4f12d87f}, ! Layer 3
  {ca6276a3-6aea-4e41-a4ca-df8a266cdd35}; ! Layer 4

OS:Construction,
  {3c443a93-4064-465b-a186-4772ad4f94ee}, ! Handle
  ASHRAE 189.1-2009 ExtWall Mass ClimateZone 4, ! Name
  {0c3b7e56-f5ba-4cca-ac4a-eb1a526d51ec}, ! Surface Rendering Name
  {c35ddc00-9a3a-4dbd-b4e7-908e8cfad979}, ! Layer 1
  {803e948f-b280-4a8f-b3b9-23e2ec13e482}, ! Layer 2
  {fbb65652-8253-475b-8bc0-1a606e76e871}, ! Layer 3
  {ca6276a3-6aea-4e41-a4ca-df8a266cdd35}; ! Layer 4

OS:Construction,
  {accb23bb-5ef7-4ddb-b4e8-1ee9b2caad98}, ! Handle
  ASHRAE 189.1-2009 ExtWall Mass ClimateZone 5, ! Name
  {b36c4cb6-fcf6-420a-8b99-7ee22f270c50}, ! Surface Rendering Name
  {c35ddc00-9a3a-4dbd-b4e7-908e8cfad979}, ! Layer 1
  {803e948f-b280-4a8f-b3b9-23e2ec13e482}, ! Layer 2
  {d8582ca2-ca88-4775-853c-3728495d38f8}, ! Layer 3
  {ca6276a3-6aea-4e41-a4ca-df8a266cdd35}; ! Layer 4

OS:Construction,
  {e560fd6e-6d29-4d97-8671-9bd4f9f8e8a0}, ! Handle
  ASHRAE 189.1-2009 ExtWall Mass ClimateZone 6, ! Name
  {76f24039-bbc1-4fe0-bf93-03588b8e0722}, ! Surface Rendering Name
  {c35ddc00-9a3a-4dbd-b4e7-908e8cfad979}, ! Layer 1
  {803e948f-b280-4a8f-b3b9-23e2ec13e482}, ! Layer 2
  {ffb82c2d-eb93-4f1c-a417-27e51e78addb}, ! Layer 3
  {ca6276a3-6aea-4e41-a4ca-df8a266cdd35}; ! Layer 4

OS:Construction,
  {fa4c5b85-818b-4f96-84d9-82a15d63c552}, ! Handle
  ASHRAE 189.1-2009 ExtWall Mass ClimateZone 7-8, ! Name
  {248e9d8b-45ae-49d1-8824-2696e1ebb0aa}, ! Surface Rendering Name
  {c35ddc00-9a3a-4dbd-b4e7-908e8cfad979}, ! Layer 1
  {803e948f-b280-4a8f-b3b9-23e2ec13e482}, ! Layer 2
  {94e0f255-cf58-463f-9f53-b79922c44c09}, ! Layer 3
  {ca6276a3-6aea-4e41-a4ca-df8a266cdd35}; ! Layer 4

OS:Construction,
  {da65ac20-52f0-4538-948f-080863ffc6d4}, ! Handle
  ASHRAE 189.1-2009 ExtWall Mass ClimateZone alt-res 1, ! Name
  {48a28658-3a75-4af9-a346-bf484472a960}, ! Surface Rendering Name
  {c35ddc00-9a3a-4dbd-b4e7-908e8cfad979}, ! Layer 1
  {803e948f-b280-4a8f-b3b9-23e2ec13e482}, ! Layer 2
  {951599cb-b42f-45f2-8526-8a6e2a9d96f0}, ! Layer 3
  {ca6276a3-6aea-4e41-a4ca-df8a266cdd35}; ! Layer 4

OS:Construction,
  {f87fa31e-c7bd-474f-8ed4-21e896db7106}, ! Handle
  ASHRAE 189.1-2009 ExtWall Mass ClimateZone alt-res 2, ! Name
  {1a8ffbd1-fea7-412b-adb4-fd4127abb1b5}, ! Surface Rendering Name
  {c35ddc00-9a3a-4dbd-b4e7-908e8cfad979}, ! Layer 1
  {803e948f-b280-4a8f-b3b9-23e2ec13e482}, ! Layer 2
  {fb5ada6c-222a-438f-97ef-4eee4f12d87f}, ! Layer 3
  {ca6276a3-6aea-4e41-a4ca-df8a266cdd35}; ! Layer 4

OS:Construction,
  {337ae614-8091-40f6-95e7-3505613994e4}, ! Handle
  ASHRAE 189.1-2009 ExtWall Mass ClimateZone alt-res 3, ! Name
  {4a05bc44-84b3-4ead-8e55-ebb60c95ba2a}, ! Surface Rendering Name
  {c35ddc00-9a3a-4dbd-b4e7-908e8cfad979}, ! Layer 1
  {803e948f-b280-4a8f-b3b9-23e2ec13e482}, ! Layer 2
  {fbb65652-8253-475b-8bc0-1a606e76e871}, ! Layer 3
  {ca6276a3-6aea-4e41-a4ca-df8a266cdd35}; ! Layer 4

OS:Construction,
  {6967c8ca-5056-46fe-891d-4681abef25e7}, ! Handle
  ASHRAE 189.1-2009 ExtWall Mass ClimateZone alt-res 4, ! Name
  {5542b176-707d-47b9-82a5-48e432b2b033}, ! Surface Rendering Name
  {c35ddc00-9a3a-4dbd-b4e7-908e8cfad979}, ! Layer 1
  {803e948f-b280-4a8f-b3b9-23e2ec13e482}, ! Layer 2
  {d8582ca2-ca88-4775-853c-3728495d38f8}, ! Layer 3
  {ca6276a3-6aea-4e41-a4ca-df8a266cdd35}; ! Layer 4

OS:Construction,
  {51c23d29-2767-4a31-b6cd-345793310365}, ! Handle
  ASHRAE 189.1-2009 ExtWall Mass ClimateZone alt-res 5, ! Name
  {8d84b972-d0dc-4b53-9a00-fffcf4337384}, ! Surface Rendering Name
  {c35ddc00-9a3a-4dbd-b4e7-908e8cfad979}, ! Layer 1
  {803e948f-b280-4a8f-b3b9-23e2ec13e482}, ! Layer 2
  {ffb82c2d-eb93-4f1c-a417-27e51e78addb}, ! Layer 3
  {ca6276a3-6aea-4e41-a4ca-df8a266cdd35}; ! Layer 4

OS:Construction,
  {9ceeaa0f-3609-4b42-a6a7-aeafe82e55ab}, ! Handle
  ASHRAE 189.1-2009 ExtWall Mass ClimateZone alt-res 6, ! Name
  {379363b2-ca50-41ec-8a5d-814cbc1e015f}, ! Surface Rendering Name
  {c35ddc00-9a3a-4dbd-b4e7-908e8cfad979}, ! Layer 1
  {803e948f-b280-4a8f-b3b9-23e2ec13e482}, ! Layer 2
  {94e0f255-cf58-463f-9f53-b79922c44c09}, ! Layer 3
  {ca6276a3-6aea-4e41-a4ca-df8a266cdd35}; ! Layer 4

OS:Construction,
  {09280edb-079b-47d3-bdce-60ed5bbd9bf3}, ! Handle
  ASHRAE 189.1-2009 ExtWall Mass ClimateZone alt-res 7, ! Name
  {1abe8b37-8fd7-4fc0-849d-83f2b8ca8d1a}, ! Surface Rendering Name
  {c35ddc00-9a3a-4dbd-b4e7-908e8cfad979}, ! Layer 1
  {803e948f-b280-4a8f-b3b9-23e2ec13e482}, ! Layer 2
  {94e0f255-cf58-463f-9f53-b79922c44c09}, ! Layer 3
  {ca6276a3-6aea-4e41-a4ca-df8a266cdd35}; ! Layer 4

OS:Construction,
  {f64292c0-06b3-435e-af0d-53bef13ba969}, ! Handle
  ASHRAE 189.1-2009 ExtWall Mass ClimateZone alt-res 8, ! Name
  {252c8db2-b52b-41f0-827b-d501bad559c0}, ! Surface Rendering Name
  {c35ddc00-9a3a-4dbd-b4e7-908e8cfad979}, ! Layer 1
  {803e948f-b280-4a8f-b3b9-23e2ec13e482}, ! Layer 2
  {53c90392-6a04-46b2-88e0-40e1a9a30736}, ! Layer 3
  {ca6276a3-6aea-4e41-a4ca-df8a266cdd35}; ! Layer 4

OS:Construction,
  {e847eae6-a1fb-4df1-84a1-e4b00aefca9b}, ! Handle
  ASHRAE 189.1-2009 ExtWall Metal ClimateZone 1-3, ! Name
  {9199bb41-7902-4f8d-a186-f90c1eb5fdf1}, ! Surface Rendering Name
  {c99d2f58-4253-4aef-a0e4-be78083d2599}, ! Layer 1
  {7e7cb078-a1cb-4d9d-8b5d-774cfe05d28d}, ! Layer 2
  {ca6276a3-6aea-4e41-a4ca-df8a266cdd35}; ! Layer 3

OS:Construction,
  {77985ffc-3047-4d79-8acd-5e4237e6f0c3}, ! Handle
  ASHRAE 189.1-2009 ExtWall Metal ClimateZone 4-8, ! Name
  {8ca3ba35-73e4-4450-a307-c6823a90409a}, ! Surface Rendering Name
  {c99d2f58-4253-4aef-a0e4-be78083d2599}, ! Layer 1
  {2b3f21c2-f508-4e43-a962-4ea315080491}, ! Layer 2
  {ca6276a3-6aea-4e41-a4ca-df8a266cdd35}; ! Layer 3

OS:Construction,
  {1a6b9870-578d-4488-a0f8-45e6de3ffd1e}, ! Handle
  ASHRAE 189.1-2009 ExtWall SteelFrame ClimateZone 1-3, ! Name
  {4f58f09d-1b83-446c-aba1-f862377f3422}, ! Surface Rendering Name
  {13ec98d6-7324-4705-bc7c-754ba0f8d6f7}, ! Layer 1
  {ed54c8ec-fa94-42a8-8ce2-e228b4cca10c}, ! Layer 2
  {ca6276a3-6aea-4e41-a4ca-df8a266cdd35}; ! Layer 3

OS:Construction,
  {efa5246e-80dd-4b86-94a5-cf3575463e5f}, ! Handle
  ASHRAE 189.1-2009 ExtWall SteelFrame ClimateZone 4-8, ! Name
  {7dfc6d35-fff0-4095-b344-23440afeef7b}, ! Surface Rendering Name
  {13ec98d6-7324-4705-bc7c-754ba0f8d6f7}, ! Layer 1
  {80e57326-032d-45d1-9e60-862a62cdca73}, ! Layer 2
  {ca6276a3-6aea-4e41-a4ca-df8a266cdd35}; ! Layer 3

OS:Construction,
  {cd639062-7203-4730-817a-a9b88a5cb624}, ! Handle
  ASHRAE 189.1-2009 ExtWall WoodFrame ClimateZone 1-4, ! Name
  {de184bb0-184a-47b8-8dc3-8a2efacac6a9}, ! Surface Rendering Name
  {7228ad12-357f-4a89-a911-1a82037c7ad0}, ! Layer 1
  {2660cb82-109a-429e-bf41-22a55e477585}, ! Layer 2
  {ca6276a3-6aea-4e41-a4ca-df8a266cdd35}; ! Layer 3

OS:Construction,
  {948962ec-2156-470a-b20d-29913578584a}, ! Handle
  ASHRAE 189.1-2009 ExtWall WoodFrame ClimateZone 5, ! Name
  {58ca28fc-81d0-4cbb-97ce-8723d5c80b4d}, ! Surface Rendering Name
  {7228ad12-357f-4a89-a911-1a82037c7ad0}, ! Layer 1
  {7d0cef63-c5ab-47ca-bbae-3a963aa05fe6}, ! Layer 2
  {ca6276a3-6aea-4e41-a4ca-df8a266cdd35}; ! Layer 3

OS:Construction,
  {0fcad667-c2d0-4989-8d3f-362e373b1aef}, ! Handle
  ASHRAE 189.1-2009 ExtWall WoodFrame ClimateZone 6-8, ! Name
  {f2ff492b-948c-47ab-abf7-a2935493499f}, ! Surface Rendering Name
  {7228ad12-357f-4a89-a911-1a82037c7ad0}, ! Layer 1
  {be39bebe-6334-4073-89fe-2d2fccbe1f1d}, ! Layer 2
  {ca6276a3-6aea-4e41-a4ca-df8a266cdd35}; ! Layer 3

OS:Construction,
  {4001a9f2-4d3a-4607-b76c-45114deb59c6}, ! Handle
  ASHRAE 189.1-2009 ExtWindow ClimateZone 1, ! Name
  {b1299895-9653-4ada-a82a-b7ca407a4c84}, ! Surface Rendering Name
  {f625eabb-5804-4ec7-aee8-92eda5ccd1d9}; ! Layer 1

OS:Construction,
  {3a8c5956-5039-4664-9967-a56f2b6abe20}, ! Handle
  ASHRAE 189.1-2009 ExtWindow ClimateZone 2, ! Name
  {668a41fc-19d2-4515-8f2f-e776496193e1}, ! Surface Rendering Name
  {86ef2837-0473-45a7-b6da-886f1c1f89ab}; ! Layer 1

OS:Construction,
  {210256f6-6baf-4461-bf6f-9ba9b9eb6580}, ! Handle
  ASHRAE 189.1-2009 ExtWindow ClimateZone 3, ! Name
  {6f96c14f-a96d-4d43-ab5e-aa2e1f2cb3dd}, ! Surface Rendering Name
  {ad7bcfc5-3101-4798-aa7b-757eee0dafc7}; ! Layer 1

OS:Construction,
  {a77394b6-ed01-4b36-b9fc-5d9efe80301d}, ! Handle
  ASHRAE 189.1-2009 ExtWindow ClimateZone 4-5, ! Name
  {bd6538dd-152c-4720-b4e9-f2cf2561158b}, ! Surface Rendering Name
  {f8c65b7e-ccb0-4b84-938b-b6b4d0b68532}; ! Layer 1

OS:Construction,
  {6b359f04-21a9-41ff-80f9-b033b0d81eab}, ! Handle
  ASHRAE 189.1-2009 ExtWindow ClimateZone 6, ! Name
  {5c9cac3e-d17f-4117-aa7f-426d6ff26fa2}, ! Surface Rendering Name
  {a1c91c95-0290-4283-b0cf-a74499047d7e}; ! Layer 1

OS:Construction,
  {7a9653c2-8a47-4df0-b5d2-b2c2c7dbe04b}, ! Handle
  ASHRAE 189.1-2009 ExtWindow ClimateZone 7-8, ! Name
  {6ab822b6-db53-4b95-9b65-9e0810ef45fa}, ! Surface Rendering Name
  {3a3cb0fe-9696-45c9-a519-6e89cd252b20}; ! Layer 1

OS:Construction,
  {be7d04c1-e3a5-42a6-be6a-e73924ccdf73}, ! Handle
  ASHRAE 189.1-2009 ExtWindow ClimateZone alt-res 4-5, ! Name
  {59034575-5233-4ae0-b668-af4e1d8dbe14}, ! Surface Rendering Name
  {a1c91c95-0290-4283-b0cf-a74499047d7e}; ! Layer 1

OS:Construction,
  {670f1227-8906-4257-825b-b57a0ac850f6}, ! Handle
  ASHRAE 90.1-2004 AtticFloor ClimateZone 1-5, ! Name
  {1c7917ed-54d7-4a6c-9ff2-2c13c3842b61}, ! Surface Rendering Name
  {ca6276a3-6aea-4e41-a4ca-df8a266cdd35}, ! Layer 1
  {2caaaba3-1cf6-435c-9920-541cbc417c27}, ! Layer 2
  {ca6276a3-6aea-4e41-a4ca-df8a266cdd35}; ! Layer 3

OS:Construction,
  {58c0a699-420e-441f-926c-3ec851d8cdf0}, ! Handle
  ASHRAE 90.1-2004 AtticFloor ClimateZone 6-8, ! Name
  {93fabb54-cc14-4883-affc-b098d37fbe0b}, ! Surface Rendering Name
  {ca6276a3-6aea-4e41-a4ca-df8a266cdd35}, ! Layer 1
  {a3f8941d-b99e-4e11-9940-fd3f7223b95f}, ! Layer 2
  {ca6276a3-6aea-4e41-a4ca-df8a266cdd35}; ! Layer 3

OS:Construction,
  {ff11778f-cea3-4bf7-8989-71e8b23cf008}, ! Handle
  ASHRAE 90.1-2004 ExtRoof IEAD ClimateZone 1-4, ! Name
  {64bf46cd-2d4f-44ca-aacb-fa6238cb7acb}, ! Surface Rendering Name
  {42fbe718-f606-4ef7-93e6-12d1c77ce650}, ! Layer 1
  {ca96a1a3-7d24-4ec8-8776-bfea69974efa}, ! Layer 2
  {9c4024a4-a3d8-4eca-b921-57bf7c90959c}; ! Layer 3

OS:Construction,
  {376b8655-5369-4657-b955-5177dffc322f}, ! Handle
  ASHRAE 90.1-2004 ExtRoof IEAD ClimateZone 5-6, ! Name
  {1be66ed5-b4b3-4694-9959-8b32201a42ad}, ! Surface Rendering Name
  {42fbe718-f606-4ef7-93e6-12d1c77ce650}, ! Layer 1
  {dd7be95d-0a96-41cb-a24c-07fd41d1bdbe}, ! Layer 2
  {9c4024a4-a3d8-4eca-b921-57bf7c90959c}; ! Layer 3

OS:Construction,
  {595b00ca-e096-4b77-ab7c-1a88b4867eb0}, ! Handle
  ASHRAE 90.1-2004 ExtRoof IEAD ClimateZone 7, ! Name
  {02408df8-187c-4e05-b486-c0e59ef105f5}, ! Surface Rendering Name
  {42fbe718-f606-4ef7-93e6-12d1c77ce650}, ! Layer 1
  {ca96a1a3-7d24-4ec8-8776-bfea69974efa}, ! Layer 2
  {9c4024a4-a3d8-4eca-b921-57bf7c90959c}; ! Layer 3

OS:Construction,
  {e21ff399-7c8a-4fcf-ba45-a7a0119d347b}, ! Handle
  ASHRAE 90.1-2004 ExtRoof IEAD ClimateZone 8, ! Name
  {dba3dbd9-8eeb-4d87-a8f0-bd497afd0c97}, ! Surface Rendering Name
  {42fbe718-f606-4ef7-93e6-12d1c77ce650}, ! Layer 1
  {e649ef2b-ef1f-47b7-959d-58376bfc9e2c}, ! Layer 2
  {9c4024a4-a3d8-4eca-b921-57bf7c90959c}; ! Layer 3

OS:Construction,
  {8253227e-6db6-4f96-9365-ca6ea254b8eb}, ! Handle
  ASHRAE 90.1-2004 ExtRoof Metal ClimateZone 1, ! Name
  {62d2c790-8985-4382-8494-98a5f7a90ef9}, ! Surface Rendering Name
  {9aa9da09-d002-4f8c-b266-b7368ed8954f}; ! Layer 1

OS:Construction,
  {c4354c15-0e48-4bc9-b91c-78498d22daab}, ! Handle
  ASHRAE 90.1-2004 ExtRoof Metal ClimateZone 2, ! Name
  {c7fd6879-1378-4015-a934-81a709a3bc98}, ! Surface Rendering Name
  {9aa9da09-d002-4f8c-b266-b7368ed8954f}, ! Layer 1
  {029bf8f4-68b6-4b1e-9b90-115265906769}; ! Layer 2

OS:Construction,
  {041e9040-d396-4f2a-90cf-6499aa3a03de}, ! Handle
  ASHRAE 90.1-2004 ExtRoof Metal ClimateZone 3-4, ! Name
  {aac640fe-a1b7-4fe6-9e16-641ae15172f7}, ! Surface Rendering Name
  {9aa9da09-d002-4f8c-b266-b7368ed8954f}, ! Layer 1
  {cfde25da-0ef3-4849-a79c-0c05f991aeac}; ! Layer 2

OS:Construction,
  {197d606b-00b7-4617-80e9-06066320435a}, ! Handle
  ASHRAE 90.1-2004 ExtRoof Metal ClimateZone 5-6, ! Name
  {cc89bd1f-9885-42e1-989e-bd36f8d6b46e}, ! Surface Rendering Name
  {9aa9da09-d002-4f8c-b266-b7368ed8954f}, ! Layer 1
  {0245bada-c87e-458e-8ee2-f677ef79e8b3}; ! Layer 2

OS:Construction,
  {9c5024dd-44a2-47cc-bb75-09b6ca284857}, ! Handle
  ASHRAE 90.1-2004 ExtRoof Metal ClimateZone 7, ! Name
  {cdf32853-d5b7-448f-ab21-952830ca9b29}, ! Surface Rendering Name
  {9aa9da09-d002-4f8c-b266-b7368ed8954f}, ! Layer 1
  {cfde25da-0ef3-4849-a79c-0c05f991aeac}; ! Layer 2

OS:Construction,
  {eec8b450-20f4-46d4-8d55-b5053827e8de}, ! Handle
  ASHRAE 90.1-2004 ExtRoof Metal ClimateZone 8, ! Name
  {364e6201-d128-4744-8aa5-76040595b9c7}, ! Surface Rendering Name
  {9aa9da09-d002-4f8c-b266-b7368ed8954f}, ! Layer 1
  {9f9e5862-8238-4216-b55a-ce514a88f96e}; ! Layer 2

OS:Construction,
  {a2179e1b-14c8-44dc-857e-c04fe9f38e45}, ! Handle
  ASHRAE 90.1-2004 ExtWall Mass ClimateZone 1-2, ! Name
  {0d78fba9-d2af-4fa1-a557-7a58861f4c21}, ! Surface Rendering Name
  {c35ddc00-9a3a-4dbd-b4e7-908e8cfad979}, ! Layer 1
  {b3da65cf-0c88-48c3-9a73-949e46b07edb}, ! Layer 2
  {ca6276a3-6aea-4e41-a4ca-df8a266cdd35}; ! Layer 3

OS:Construction,
  {d70132d1-248b-41e1-8457-994af59bff16}, ! Handle
  ASHRAE 90.1-2004 ExtWall Mass ClimateZone 3-4, ! Name
  {70aed426-8d8f-4898-9717-594c10ff64c7}, ! Surface Rendering Name
  {c35ddc00-9a3a-4dbd-b4e7-908e8cfad979}, ! Layer 1
  {b3da65cf-0c88-48c3-9a73-949e46b07edb}, ! Layer 2
  {92c5df41-8fe9-489c-a9e0-7256af74b27a}, ! Layer 3
  {ca6276a3-6aea-4e41-a4ca-df8a266cdd35}; ! Layer 4

OS:Construction,
  {5bb85862-7de3-47be-b2f5-2ded8bae1e63}, ! Handle
  ASHRAE 90.1-2004 ExtWall Mass ClimateZone 5, ! Name
  {85384ba2-d10e-4c86-b287-977ecf613474}, ! Surface Rendering Name
  {c35ddc00-9a3a-4dbd-b4e7-908e8cfad979}, ! Layer 1
  {b3da65cf-0c88-48c3-9a73-949e46b07edb}, ! Layer 2
  {6615c94b-8b65-498c-be89-1b3ada73dd59}, ! Layer 3
  {ca6276a3-6aea-4e41-a4ca-df8a266cdd35}; ! Layer 4

OS:Construction,
  {440dce5d-ca5c-4abc-9701-e46a85671cd1}, ! Handle
  ASHRAE 90.1-2004 ExtWall Mass ClimateZone 6, ! Name
  {2601e985-167e-4573-9f3e-b0faab704ab9}, ! Surface Rendering Name
  {c35ddc00-9a3a-4dbd-b4e7-908e8cfad979}, ! Layer 1
  {b3da65cf-0c88-48c3-9a73-949e46b07edb}, ! Layer 2
  {0c3b4b3e-809a-44ba-8f99-e92070b9224f}, ! Layer 3
  {ca6276a3-6aea-4e41-a4ca-df8a266cdd35}; ! Layer 4

OS:Construction,
  {b3c6853a-0a6d-47f5-97aa-7ef84cd0fc5d}, ! Handle
  ASHRAE 90.1-2004 ExtWall Mass ClimateZone 7, ! Name
  {06070414-d9df-4230-af47-76bd3d6563c0}, ! Surface Rendering Name
  {c35ddc00-9a3a-4dbd-b4e7-908e8cfad979}, ! Layer 1
  {b3da65cf-0c88-48c3-9a73-949e46b07edb}, ! Layer 2
  {0b6b3f25-a925-4d35-9adc-e694b8b4d15d}, ! Layer 3
  {ca6276a3-6aea-4e41-a4ca-df8a266cdd35}; ! Layer 4

OS:Construction,
  {b108b7b5-cf49-40d1-97b4-973e53d447b3}, ! Handle
  ASHRAE 90.1-2004 ExtWall Mass ClimateZone 8, ! Name
  {1c5f525d-161c-47b5-8575-ab7066e46b6c}, ! Surface Rendering Name
  {c35ddc00-9a3a-4dbd-b4e7-908e8cfad979}, ! Layer 1
  {b3da65cf-0c88-48c3-9a73-949e46b07edb}, ! Layer 2
  {cf192e99-7b0d-470d-8fcf-77d618053f5b}, ! Layer 3
  {ca6276a3-6aea-4e41-a4ca-df8a266cdd35}; ! Layer 4

OS:Construction,
  {5ce8a841-d11f-4e16-936f-8991958f7aa5}, ! Handle
  ASHRAE 90.1-2004 ExtWall Mass ClimateZone alt-res 1-2, ! Name
  {e3667b70-3bd5-4953-9e07-c567c2b080ad}, ! Surface Rendering Name
  {c35ddc00-9a3a-4dbd-b4e7-908e8cfad979}, ! Layer 1
  {b3da65cf-0c88-48c3-9a73-949e46b07edb}, ! Layer 2
  {92c5df41-8fe9-489c-a9e0-7256af74b27a}, ! Layer 3
  {ca6276a3-6aea-4e41-a4ca-df8a266cdd35}; ! Layer 4

OS:Construction,
  {699f67ad-a79f-41e7-83af-c502df3dfff8}, ! Handle
  ASHRAE 90.1-2004 ExtWall Mass ClimateZone alt-res 3, ! Name
  {bb0e2135-68c0-4ec2-bf6f-1b0cc00c0d81}, ! Surface Rendering Name
  {c35ddc00-9a3a-4dbd-b4e7-908e8cfad979}, ! Layer 1
  {b3da65cf-0c88-48c3-9a73-949e46b07edb}, ! Layer 2
  {6615c94b-8b65-498c-be89-1b3ada73dd59}, ! Layer 3
  {ca6276a3-6aea-4e41-a4ca-df8a266cdd35}; ! Layer 4

OS:Construction,
  {dff729c2-b680-4390-9b87-62f3f323b231}, ! Handle
  ASHRAE 90.1-2004 ExtWall Mass ClimateZone alt-res 4, ! Name
  {ebbc1cb6-9bba-43e7-b60e-e7b83cfb456a}, ! Surface Rendering Name
  {c35ddc00-9a3a-4dbd-b4e7-908e8cfad979}, ! Layer 1
  {b3da65cf-0c88-48c3-9a73-949e46b07edb}, ! Layer 2
  {0c3b4b3e-809a-44ba-8f99-e92070b9224f}, ! Layer 3
  {ca6276a3-6aea-4e41-a4ca-df8a266cdd35}; ! Layer 4

OS:Construction,
  {b1c85aec-d833-4f6e-a1ed-a3578ca1cc09}, ! Handle
  ASHRAE 90.1-2004 ExtWall Mass ClimateZone alt-res 5-6, ! Name
  {1d2a2d15-5a6f-4fe9-a499-5d93f48e09bd}, ! Surface Rendering Name
  {c35ddc00-9a3a-4dbd-b4e7-908e8cfad979}, ! Layer 1
  {b3da65cf-0c88-48c3-9a73-949e46b07edb}, ! Layer 2
  {0b6b3f25-a925-4d35-9adc-e694b8b4d15d}, ! Layer 3
  {ca6276a3-6aea-4e41-a4ca-df8a266cdd35}; ! Layer 4

OS:Construction,
  {4054f512-7747-4059-9082-a1eec49ce277}, ! Handle
  ASHRAE 90.1-2004 ExtWall Mass ClimateZone alt-res 7, ! Name
  {84b213a5-4ff3-464e-8155-14b6df465362}, ! Surface Rendering Name
  {c35ddc00-9a3a-4dbd-b4e7-908e8cfad979}, ! Layer 1
  {b3da65cf-0c88-48c3-9a73-949e46b07edb}, ! Layer 2
  {cf192e99-7b0d-470d-8fcf-77d618053f5b}, ! Layer 3
  {ca6276a3-6aea-4e41-a4ca-df8a266cdd35}; ! Layer 4

OS:Construction,
  {2526605e-528c-4a0e-86af-714a6d2bd6ad}, ! Handle
  ASHRAE 90.1-2004 ExtWall Mass ClimateZone alt-res 8, ! Name
  {3ad1a349-250b-4881-b735-f2315ad43c85}, ! Surface Rendering Name
  {c35ddc00-9a3a-4dbd-b4e7-908e8cfad979}, ! Layer 1
  {b3da65cf-0c88-48c3-9a73-949e46b07edb}, ! Layer 2
  {e701bbdf-77b0-4489-bbe7-0e0202bebfac}, ! Layer 3
  {ca6276a3-6aea-4e41-a4ca-df8a266cdd35}; ! Layer 4

OS:Construction,
  {5a7150a7-9bfe-4649-861f-bdccb5f4bcf5}, ! Handle
  ASHRAE 90.1-2004 ExtWall Metal ClimateZone 1, ! Name
  {fcf61667-d21a-443d-b8cc-e3a391bf20d7}, ! Surface Rendering Name
  {c99d2f58-4253-4aef-a0e4-be78083d2599}, ! Layer 1
  {ca6276a3-6aea-4e41-a4ca-df8a266cdd35}; ! Layer 2

OS:Construction,
  {3e0c0dca-6272-44a2-9ba7-5404b28c7fdf}, ! Handle
  ASHRAE 90.1-2004 ExtWall Metal ClimateZone 2-3, ! Name
  {7ffd4059-119c-4913-ac53-130f58d0322f}, ! Surface Rendering Name
  {c99d2f58-4253-4aef-a0e4-be78083d2599}, ! Layer 1
  {e9c4a8af-4ed7-4e67-ac5a-ba00dcef8781}, ! Layer 2
  {ca6276a3-6aea-4e41-a4ca-df8a266cdd35}; ! Layer 3

OS:Construction,
  {910d8545-c2fe-4824-8d45-42a9ee97ee77}, ! Handle
  ASHRAE 90.1-2004 ExtWall Metal ClimateZone 4, ! Name
  {e4dac481-2081-4015-b31d-133fb5e3931a}, ! Surface Rendering Name
  {c99d2f58-4253-4aef-a0e4-be78083d2599}, ! Layer 1
  {e9d0f93e-cb24-4e05-82e9-ba53c7dd8e35}, ! Layer 2
  {ca6276a3-6aea-4e41-a4ca-df8a266cdd35}; ! Layer 3

OS:Construction,
  {460a97c6-b747-4496-a4ee-28905188b000}, ! Handle
  ASHRAE 90.1-2004 ExtWall Metal ClimateZone 5, ! Name
  {c898c645-5805-4007-9291-860ad3a9cb39}, ! Surface Rendering Name
  {c99d2f58-4253-4aef-a0e4-be78083d2599}, ! Layer 1
  {545784a7-fd8a-405b-a56d-a120e870c03a}, ! Layer 2
  {ca6276a3-6aea-4e41-a4ca-df8a266cdd35}; ! Layer 3

OS:Construction,
  {adf33e28-6694-4390-8f5a-0982c84e00cb}, ! Handle
  ASHRAE 90.1-2004 ExtWall Metal ClimateZone 6-8, ! Name
  {c128507d-b08a-47d5-bbba-06f332e3eee8}, ! Surface Rendering Name