
OS:Version,
  {354f12e0-3cbb-4100-8083-c02855fc2046}, !- Handle
  1.3.3;                                  !- Version Identifier

OS:Construction,
  {9b2c3715-fb73-423e-b987-1b5c561d568c}, !- Handle
  ASHRAE 189.1-2009 AtticFloor ClimateZone 1-8, !- Name
  ,                                       !- Surface Rendering Name
  {cb1c40d8-0783-4e06-8694-a0f62f6acb27}, !- Layer 1
  {3d7a40e0-bb6e-4574-9d55-0e1e2d09755e}, !- Layer 2
  {cb1c40d8-0783-4e06-8694-a0f62f6acb27}; !- Layer 3

OS:StandardsInformation:Construction,
  {0df3db80-d8df-4df7-9a18-c0e7cb8dd80b}, !- Handle
  {9b2c3715-fb73-423e-b987-1b5c561d568c}, !- Construction Name
  AtticFloor,                             !- Intended Surface Type
  WoodFramed;                             !- Standards Construction Type

OS:Material,
  {cb1c40d8-0783-4e06-8694-a0f62f6acb27}, !- Handle
  1/2IN Gypsum,                           !- Name
  Smooth,                                 !- Roughness
  0.0127,                                 !- Thickness {m}
  0.16,                                   !- Conductivity {W/m-K}
  784.9,                                  !- Density {kg/m3}
  830.000000000001,                       !- Specific Heat {J/kg-K}
  0.9,                                    !- Thermal Absorptance
  0.92,                                   !- Solar Absorptance
  0.92;                                   !- Visible Absorptance

OS:Material,
  {3d7a40e0-bb6e-4574-9d55-0e1e2d09755e}, !- Handle
  AtticFloor Insulation,                  !- Name
  MediumRough,                            !- Roughness
  0.2379,                                 !- Thickness {m}
  0.049,                                  !- Conductivity {W/m-K}
  265,                                    !- Density {kg/m3}
  836.800000000001,                       !- Specific Heat {J/kg-K}
  0.9,                                    !- Thermal Absorptance
  0.7,                                    !- Solar Absorptance
  0.7;                                    !- Visible Absorptance

OS:Construction,
  {f7d7e2ef-e501-4881-8888-838e6cf596db}, !- Handle
  ASHRAE 189.1-2009 ExtRoof IEAD ClimateZone 1, !- Name
  ,                                       !- Surface Rendering Name
  {286e5ae4-25b4-4d0b-9f0e-fed7822df491}, !- Layer 1
  {06f303a2-c5e4-4fac-acd5-a73ba02beaeb}, !- Layer 2
  {9735dc93-57d8-418a-8ccb-5e41b4db37a2}; !- Layer 3

OS:StandardsInformation:Construction,
  {3955b1c1-0609-4950-82a6-47cf1efe234b}, !- Handle
  {f7d7e2ef-e501-4881-8888-838e6cf596db}, !- Construction Name
  ExteriorRoof,                           !- Intended Surface Type
  IEAD;                                   !- Standards Construction Type

OS:Material,
  {286e5ae4-25b4-4d0b-9f0e-fed7822df491}, !- Handle
  Roof Membrane,                          !- Name
  VeryRough,                              !- Roughness
  0.0095,                                 !- Thickness {m}
  0.16,                                   !- Conductivity {W/m-K}
  1121.29,                                !- Density {kg/m3}
  1460,                                   !- Specific Heat {J/kg-K}
  0.9,                                    !- Thermal Absorptance
  0.7,                                    !- Solar Absorptance
  0.7;                                    !- Visible Absorptance

OS:Material,
  {06f303a2-c5e4-4fac-acd5-a73ba02beaeb}, !- Handle
  Roof Insulation [18],                   !- Name
  MediumRough,                            !- Roughness
  0.1693,                                 !- Thickness {m}
  0.049,                                  !- Conductivity {W/m-K}
  265,                                    !- Density {kg/m3}
  836.800000000001,                       !- Specific Heat {J/kg-K}
  0.9,                                    !- Thermal Absorptance
  0.7,                                    !- Solar Absorptance
  0.7;                                    !- Visible Absorptance

OS:Material,
  {9735dc93-57d8-418a-8ccb-5e41b4db37a2}, !- Handle
  Metal Decking,                          !- Name
  MediumSmooth,                           !- Roughness
  0.0015,                                 !- Thickness {m}
  45.006,                                 !- Conductivity {W/m-K}
  7680,                                   !- Density {kg/m3}
  418.4,                                  !- Specific Heat {J/kg-K}
  0.9,                                    !- Thermal Absorptance
  0.7,                                    !- Solar Absorptance
  0.3;                                    !- Visible Absorptance

OS:Construction,
  {259b7fb4-a0cc-4cac-8b37-165bdf4f6dd4}, !- Handle
  ASHRAE 189.1-2009 ExtRoof IEAD ClimateZone 2-5, !- Name
  ,                                       !- Surface Rendering Name
  {286e5ae4-25b4-4d0b-9f0e-fed7822df491}, !- Layer 1
  {52465c7a-4ef4-427f-b4bf-4f3c193def7b}, !- Layer 2
  {9735dc93-57d8-418a-8ccb-5e41b4db37a2}; !- Layer 3

OS:StandardsInformation:Construction,
  {4deb99a1-b4d8-42df-ab36-998743ef3bd8}, !- Handle
  {259b7fb4-a0cc-4cac-8b37-165bdf4f6dd4}, !- Construction Name
  ExteriorRoof,                           !- Intended Surface Type
  IEAD;                                   !- Standards Construction Type

OS:Material,
  {52465c7a-4ef4-427f-b4bf-4f3c193def7b}, !- Handle
  Roof Insulation [21],                   !- Name
  MediumRough,                            !- Roughness
  0.2105,                                 !- Thickness {m}
  0.049,                                  !- Conductivity {W/m-K}
  265,                                    !- Density {kg/m3}
  836.800000000001,                       !- Specific Heat {J/kg-K}
  0.9,                                    !- Thermal Absorptance
  0.7,                                    !- Solar Absorptance
  0.7;                                    !- Visible Absorptance

OS:Construction,
  {461098cf-8b34-4392-9546-02a5e468a63d}, !- Handle
  ASHRAE 189.1-2009 ExtRoof IEAD ClimateZone 6, !- Name
  ,                                       !- Surface Rendering Name
  {286e5ae4-25b4-4d0b-9f0e-fed7822df491}, !- Layer 1
  {5d134cf2-4afa-4d61-a442-3272340e3a35}, !- Layer 2
  {9735dc93-57d8-418a-8ccb-5e41b4db37a2}; !- Layer 3

OS:StandardsInformation:Construction,
  {501ad9b5-bebc-44fc-8b71-e92f78fae996}, !- Handle
  {461098cf-8b34-4392-9546-02a5e468a63d}, !- Construction Name
  ExteriorRoof,                           !- Intended Surface Type
  IEAD;                                   !- Standards Construction Type

OS:Material,
  {5d134cf2-4afa-4d61-a442-3272340e3a35}, !- Handle
  Roof Insulation [24],                   !- Name
  MediumRough,                            !- Roughness
  0.260100000000001,                      !- Thickness {m}
  0.049,                                  !- Conductivity {W/m-K}
  265,                                    !- Density {kg/m3}
  836.800000000001,                       !- Specific Heat {J/kg-K}
  0.9,                                    !- Thermal Absorptance
  0.7,                                    !- Solar Absorptance
  0.7;                                    !- Visible Absorptance

OS:Construction,
  {ef7cd6ca-3dfd-4263-9cb8-19cb76ce0d3d}, !- Handle
  ASHRAE 189.1-2009 ExtRoof IEAD ClimateZone 7-8, !- Name
  ,                                       !- Surface Rendering Name
  {286e5ae4-25b4-4d0b-9f0e-fed7822df491}, !- Layer 1
  {9f786a23-4895-431e-948c-69ccc558cc7c}, !- Layer 2
  {9735dc93-57d8-418a-8ccb-5e41b4db37a2}; !- Layer 3

OS:StandardsInformation:Construction,
  {606d6173-2f35-4d1f-ae75-e6e074a277dc}, !- Handle
  {ef7cd6ca-3dfd-4263-9cb8-19cb76ce0d3d}, !- Construction Name
  ExteriorRoof,                           !- Intended Surface Type
  IEAD;                                   !- Standards Construction Type

OS:Material,
  {9f786a23-4895-431e-948c-69ccc558cc7c}, !- Handle
  Roof Insulation [26],                   !- Name
  MediumRough,                            !- Roughness
  0.2941,                                 !- Thickness {m}
  0.049,                                  !- Conductivity {W/m-K}
  265,                                    !- Density {kg/m3}
  836.800000000001,                       !- Specific Heat {J/kg-K}
  0.9,                                    !- Thermal Absorptance
  0.7,                                    !- Solar Absorptance
  0.7;                                    !- Visible Absorptance

OS:Construction,
  {85896629-6ceb-4b74-a22e-25c487d3ed60}, !- Handle
  ASHRAE 189.1-2009 ExtRoof Metal ClimateZone 1, !- Name
  ,                                       !- Surface Rendering Name
  {74b642ef-15d0-439e-8481-e76df9c3653a}, !- Layer 1
  {55b2a5f5-e287-4255-b7f3-46764c06a0ca}; !- Layer 2

OS:StandardsInformation:Construction,
  {3b74d974-60db-490f-8a57-d1c5e8cc0f0d}, !- Handle
  {85896629-6ceb-4b74-a22e-25c487d3ed60}, !- Construction Name
  ExteriorRoof,                           !- Intended Surface Type
  Metal;                                  !- Standards Construction Type

OS:Material,
  {74b642ef-15d0-439e-8481-e76df9c3653a}, !- Handle
  Metal Roofing,                          !- Name
  MediumSmooth,                           !- Roughness
  0.0015,                                 !- Thickness {m}
  45.006,                                 !- Conductivity {W/m-K}
  7680,                                   !- Density {kg/m3}
  418.4,                                  !- Specific Heat {J/kg-K}
  0.9,                                    !- Thermal Absorptance
  0.3,                                    !- Solar Absorptance
  0.3;                                    !- Visible Absorptance

OS:Material,
  {55b2a5f5-e287-4255-b7f3-46764c06a0ca}, !- Handle
  Roof Insulation [19],                   !- Name
  MediumRough,                            !- Roughness
  0.1868,                                 !- Thickness {m}
  0.049,                                  !- Conductivity {W/m-K}
  265,                                    !- Density {kg/m3}
  836.800000000001,                       !- Specific Heat {J/kg-K}
  0.9,                                    !- Thermal Absorptance
  0.7,                                    !- Solar Absorptance
  0.7;                                    !- Visible Absorptance

OS:Construction,
  {6e77d6c8-7154-4db6-a61c-32250195bad9}, !- Handle
  ASHRAE 189.1-2009 ExtRoof Metal ClimateZone 2-5, !- Name
  ,                                       !- Surface Rendering Name
  {74b642ef-15d0-439e-8481-e76df9c3653a}, !- Layer 1
  {c6133cb6-ae4f-4505-86c1-cc227acdff1e}; !- Layer 2

OS:StandardsInformation:Construction,
  {583ad86c-21c2-4c1c-bcf1-d3ec9f1ae38e}, !- Handle
  {6e77d6c8-7154-4db6-a61c-32250195bad9}, !- Construction Name
  ExteriorRoof,                           !- Intended Surface Type
  Metal;                                  !- Standards Construction Type

OS:Material,
  {c6133cb6-ae4f-4505-86c1-cc227acdff1e}, !- Handle
  Roof Insulation [22],                   !- Name
  MediumRough,                            !- Roughness
  0.2358,                                 !- Thickness {m}
  0.049,                                  !- Conductivity {W/m-K}
  265,                                    !- Density {kg/m3}
  836.800000000001,                       !- Specific Heat {J/kg-K}
  0.9,                                    !- Thermal Absorptance
  0.7,                                    !- Solar Absorptance
  0.7;                                    !- Visible Absorptance

OS:Construction,
  {ae0c7992-c0dc-42c3-ba49-b106bcf268c7}, !- Handle
  ASHRAE 189.1-2009 ExtRoof Metal ClimateZone 6, !- Name
  ,                                       !- Surface Rendering Name
  {74b642ef-15d0-439e-8481-e76df9c3653a}, !- Layer 1
  {424f2008-cd18-4cdc-9fc2-c3a05a8635f2}; !- Layer 2

OS:StandardsInformation:Construction,
  {362a4be4-7aeb-4275-8906-fc30b2cd5848}, !- Handle
  {ae0c7992-c0dc-42c3-ba49-b106bcf268c7}, !- Construction Name
  ExteriorRoof,                           !- Intended Surface Type
  Metal;                                  !- Standards Construction Type

OS:Material,
  {424f2008-cd18-4cdc-9fc2-c3a05a8635f2}, !- Handle
  Roof Insulation [25],                   !- Name
  MediumRough,                            !- Roughness
  0.263,                                  !- Thickness {m}
  0.049,                                  !- Conductivity {W/m-K}
  265,                                    !- Density {kg/m3}
  836.800000000001,                       !- Specific Heat {J/kg-K}
  0.9,                                    !- Thermal Absorptance
  0.7,                                    !- Solar Absorptance
  0.7;                                    !- Visible Absorptance

OS:Construction,
  {c96af7be-58db-46c4-962d-5f3b188570c2}, !- Handle
  ASHRAE 189.1-2009 ExtRoof Metal ClimateZone 7-8, !- Name
  ,                                       !- Surface Rendering Name
  {74b642ef-15d0-439e-8481-e76df9c3653a}, !- Layer 1
  {30d6ed40-b88f-4d18-92f8-69b581ff49df}; !- Layer 2

OS:StandardsInformation:Construction,
  {33658571-74a1-48da-819f-d4f14843cb7b}, !- Handle
  {c96af7be-58db-46c4-962d-5f3b188570c2}, !- Construction Name
  ExteriorRoof,                           !- Intended Surface Type
  Metal;                                  !- Standards Construction Type

OS:Material,
  {30d6ed40-b88f-4d18-92f8-69b581ff49df}, !- Handle
  Roof Insulation [27],                   !- Name
  MediumRough,                            !- Roughness
  0.297000000000001,                      !- Thickness {m}
  0.049,                                  !- Conductivity {W/m-K}
  265,                                    !- Density {kg/m3}
  836.800000000001,                       !- Specific Heat {J/kg-K}
  0.9,                                    !- Thermal Absorptance
  0.7,                                    !- Solar Absorptance
  0.7;                                    !- Visible Absorptance

OS:Construction,
  {78949cbf-5bb2-47c3-bc09-72ae36862200}, !- Handle
  ASHRAE 189.1-2009 ExtWall Mass ClimateZone 1, !- Name
  ,                                       !- Surface Rendering Name
  {8aea2796-9b27-4326-be83-95cbb8421000}, !- Layer 1
  {718a082a-6220-4140-bd9f-1428f746290b}, !- Layer 2
  {dc07911e-184c-46ea-8ea6-1aaa6a04f5a6}, !- Layer 3
  {cb1c40d8-0783-4e06-8694-a0f62f6acb27}; !- Layer 4

OS:StandardsInformation:Construction,
  {be3f9925-1a4c-4133-9e6b-5579a3e8a1cc}, !- Handle
  {78949cbf-5bb2-47c3-bc09-72ae36862200}, !- Construction Name
  ExteriorWall,                           !- Intended Surface Type
  Mass;                                   !- Standards Construction Type

OS:Material,
  {8aea2796-9b27-4326-be83-95cbb8421000}, !- Handle
  1IN Stucco,                             !- Name
  Smooth,                                 !- Roughness
  0.0253,                                 !- Thickness {m}
  0.691799999999999,                      !- Conductivity {W/m-K}
  1858,                                   !- Density {kg/m3}
  836.999999999999,                       !- Specific Heat {J/kg-K}
  0.9,                                    !- Thermal Absorptance
  0.92,                                   !- Solar Absorptance
  0.92;                                   !- Visible Absorptance

OS:Material,
  {718a082a-6220-4140-bd9f-1428f746290b}, !- Handle
  8IN Concrete HW,                        !- Name
  MediumRough,                            !- Roughness
  0.2033,                                 !- Thickness {m}
  1.72959999999999,                       !- Conductivity {W/m-K}
  2242.99999999999,                       !- Density {kg/m3}
  836.999999999999,                       !- Specific Heat {J/kg-K}
  0.9,                                    !- Thermal Absorptance
  0.65,                                   !- Solar Absorptance
  0.65;                                   !- Visible Absorptance

OS:Material,
  {dc07911e-184c-46ea-8ea6-1aaa6a04f5a6}, !- Handle
  Wall Insulation [31],                   !- Name
  MediumRough,                            !- Roughness
  0.0337000000000001,                     !- Thickness {m}
  0.0432,                                 !- Conductivity {W/m-K}
  91,                                     !- Density {kg/m3}
  836.999999999999,                       !- Specific Heat {J/kg-K}
  0.9,                                    !- Thermal Absorptance
  0.5,                                    !- Solar Absorptance
  0.5;                                    !- Visible Absorptance

OS:Construction,
  {ea97e40c-137e-42b0-964c-6e9ae755aa97}, !- Handle
  ASHRAE 189.1-2009 ExtWall Mass ClimateZone 2, !- Name
  ,                                       !- Surface Rendering Name
  {8aea2796-9b27-4326-be83-95cbb8421000}, !- Layer 1
  {718a082a-6220-4140-bd9f-1428f746290b}, !- Layer 2
  {4d4da756-f830-444f-a19b-80aae2734214}, !- Layer 3
  {cb1c40d8-0783-4e06-8694-a0f62f6acb27}; !- Layer 4

OS:StandardsInformation:Construction,
  {e4de97e5-d19d-4ac0-905a-e8c3dbfb3cbf}, !- Handle
  {ea97e40c-137e-42b0-964c-6e9ae755aa97}, !- Construction Name
  ExteriorWall,                           !- Intended Surface Type
  Mass;                                   !- Standards Construction Type

OS:Material,
  {4d4da756-f830-444f-a19b-80aae2734214}, !- Handle
  Wall Insulation [35],                   !- Name
  MediumRough,                            !- Roughness
  0.0452,                                 !- Thickness {m}
  0.0432,                                 !- Conductivity {W/m-K}
  91,                                     !- Density {kg/m3}
  836.999999999999,                       !- Specific Heat {J/kg-K}
  0.9,                                    !- Thermal Absorptance
  0.5,                                    !- Solar Absorptance
  0.5;                                    !- Visible Absorptance

OS:Construction,
  {87163e82-a26b-4b98-ad5b-99ebc5a7580d}, !- Handle
  ASHRAE 189.1-2009 ExtWall Mass ClimateZone 3, !- Name
  ,                                       !- Surface Rendering Name
  {8aea2796-9b27-4326-be83-95cbb8421000}, !- Layer 1
  {718a082a-6220-4140-bd9f-1428f746290b}, !- Layer 2
  {f1cebfa3-1445-4b13-ada8-6d40f11f0414}, !- Layer 3
  {cb1c40d8-0783-4e06-8694-a0f62f6acb27}; !- Layer 4

OS:StandardsInformation:Construction,
  {b3b14415-666d-4692-9ffb-3cdc781dd492}, !- Handle
  {87163e82-a26b-4b98-ad5b-99ebc5a7580d}, !- Construction Name
  ExteriorWall,                           !- Intended Surface Type
  Mass;                                   !- Standards Construction Type

OS:Material,
  {f1cebfa3-1445-4b13-ada8-6d40f11f0414}, !- Handle
  Wall Insulation [36],                   !- Name
  MediumRough,                            !- Roughness
  0.0565999999999999,                     !- Thickness {m}
  0.0432,                                 !- Conductivity {W/m-K}
  91,                                     !- Density {kg/m3}
  836.999999999999,                       !- Specific Heat {J/kg-K}
  0.9,                                    !- Thermal Absorptance
  0.5,                                    !- Solar Absorptance
  0.5;                                    !- Visible Absorptance

OS:Construction,
  {2ec93f72-0948-4c2b-835a-f277a95dedbb}, !- Handle
  ASHRAE 189.1-2009 ExtWall Mass ClimateZone 4, !- Name
  ,                                       !- Surface Rendering Name
  {8aea2796-9b27-4326-be83-95cbb8421000}, !- Layer 1
  {718a082a-6220-4140-bd9f-1428f746290b}, !- Layer 2
  {d6e7fd7e-c56c-424d-a2bf-234def14de4e}, !- Layer 3
  {cb1c40d8-0783-4e06-8694-a0f62f6acb27}; !- Layer 4

OS:StandardsInformation:Construction,
  {938763a3-f7d2-4701-b374-e75fd646477f}, !- Handle
  {2ec93f72-0948-4c2b-835a-f277a95dedbb}, !- Construction Name
  ExteriorWall,                           !- Intended Surface Type
  Mass;                                   !- Standards Construction Type

OS:Material,
  {d6e7fd7e-c56c-424d-a2bf-234def14de4e}, !- Handle
  Wall Insulation [37],                   !- Name
  MediumRough,                            !- Roughness
  0.0680999999999999,                     !- Thickness {m}
  0.0432,                                 !- Conductivity {W/m-K}
  91,                                     !- Density {kg/m3}
  836.999999999999,                       !- Specific Heat {J/kg-K}
  0.9,                                    !- Thermal Absorptance
  0.5,                                    !- Solar Absorptance
  0.5;                                    !- Visible Absorptance

OS:Construction,
  {0a578453-e410-489b-84a1-2c3bf23e6413}, !- Handle
  ASHRAE 189.1-2009 ExtWall Mass ClimateZone 5, !- Name
  ,                                       !- Surface Rendering Name
  {8aea2796-9b27-4326-be83-95cbb8421000}, !- Layer 1
  {718a082a-6220-4140-bd9f-1428f746290b}, !- Layer 2
  {d955c924-b9b7-434e-9255-cd04ddd42b2f}, !- Layer 3
  {cb1c40d8-0783-4e06-8694-a0f62f6acb27}; !- Layer 4

OS:StandardsInformation:Construction,
  {2c987e71-8563-43ae-9e75-f65d0699603e}, !- Handle
  {0a578453-e410-489b-84a1-2c3bf23e6413}, !- Construction Name
  ExteriorWall,                           !- Intended Surface Type
  Mass;                                   !- Standards Construction Type

OS:Material,
  {d955c924-b9b7-434e-9255-cd04ddd42b2f}, !- Handle
  Wall Insulation [40],                   !- Name
  MediumRough,                            !- Roughness
  0.0793999999999999,                     !- Thickness {m}
  0.0432,                                 !- Conductivity {W/m-K}
  91,                                     !- Density {kg/m3}
  836.999999999999,                       !- Specific Heat {J/kg-K}
  0.9,                                    !- Thermal Absorptance
  0.5,                                    !- Solar Absorptance
  0.5;                                    !- Visible Absorptance

OS:Construction,
  {c426f4f6-5b03-43fb-8468-bb452f953e00}, !- Handle
  ASHRAE 189.1-2009 ExtWall Mass ClimateZone 6, !- Name
  ,                                       !- Surface Rendering Name
  {8aea2796-9b27-4326-be83-95cbb8421000}, !- Layer 1
  {718a082a-6220-4140-bd9f-1428f746290b}, !- Layer 2
  {415fd38d-2644-4029-a676-33b00393a959}, !- Layer 3
  {cb1c40d8-0783-4e06-8694-a0f62f6acb27}; !- Layer 4

OS:StandardsInformation:Construction,
  {e8b8dfb9-efc9-42e3-8af8-01ad855ddafa}, !- Handle
  {c426f4f6-5b03-43fb-8468-bb452f953e00}, !- Construction Name
  ExteriorWall,                           !- Intended Surface Type
  Mass;                                   !- Standards Construction Type

OS:Material,
  {415fd38d-2644-4029-a676-33b00393a959}, !- Handle
  Wall Insulation [42],                   !- Name
  MediumRough,                            !- Roughness
  0.0913999999999999,                     !- Thickness {m}
  0.0432,                                 !- Conductivity {W/m-K}
  91,                                     !- Density {kg/m3}
  836.999999999999,                       !- Specific Heat {J/kg-K}
  0.9,                                    !- Thermal Absorptance
  0.5,                                    !- Solar Absorptance
  0.5;                                    !- Visible Absorptance

OS:Construction,
  {ad4e99ff-a962-4469-8e8e-d1347077a639}, !- Handle
  ASHRAE 189.1-2009 ExtWall Mass ClimateZone 7-8, !- Name
  ,                                       !- Surface Rendering Name
  {8aea2796-9b27-4326-be83-95cbb8421000}, !- Layer 1
  {718a082a-6220-4140-bd9f-1428f746290b}, !- Layer 2
  {94e396ab-2ffe-4496-8e7a-55b45df4cdb9}, !- Layer 3
  {cb1c40d8-0783-4e06-8694-a0f62f6acb27}; !- Layer 4

OS:StandardsInformation:Construction,
  {7f68e044-fd96-4765-95f9-73e87b2a908f}, !- Handle
  {ad4e99ff-a962-4469-8e8e-d1347077a639}, !- Construction Name
  ExteriorWall,                           !- Intended Surface Type
  Mass;                                   !- Standards Construction Type

OS:Material,
  {94e396ab-2ffe-4496-8e7a-55b45df4cdb9}, !- Handle
  Wall Insulation [44],                   !- Name
  MediumRough,                            !- Roughness
  0.1104,                                 !- Thickness {m}
  0.0432,                                 !- Conductivity {W/m-K}
  91,                                     !- Density {kg/m3}
  836.999999999999,                       !- Specific Heat {J/kg-K}
  0.9,                                    !- Thermal Absorptance
  0.5,                                    !- Solar Absorptance
  0.5;                                    !- Visible Absorptance

OS:Construction,
  {c5115cf6-958d-46fe-ba26-16a5fb30b081}, !- Handle
  ASHRAE 189.1-2009 ExtWall Mass ClimateZone alt-res 1, !- Name
  ,                                       !- Surface Rendering Name
  {8aea2796-9b27-4326-be83-95cbb8421000}, !- Layer 1
  {718a082a-6220-4140-bd9f-1428f746290b}, !- Layer 2
  {4d4da756-f830-444f-a19b-80aae2734214}, !- Layer 3
  {cb1c40d8-0783-4e06-8694-a0f62f6acb27}; !- Layer 4

OS:StandardsInformation:Construction,
  {e92b7060-6868-4753-b3f6-1b972bc14262}, !- Handle
  {c5115cf6-958d-46fe-ba26-16a5fb30b081}, !- Construction Name
  ExteriorWall,                           !- Intended Surface Type
  Mass;                                   !- Standards Construction Type

OS:Construction,
  {3fe389e7-8b31-4342-a9d9-591d00dfa273}, !- Handle
  ASHRAE 189.1-2009 ExtWall Mass ClimateZone alt-res 2, !- Name
  ,                                       !- Surface Rendering Name
  {8aea2796-9b27-4326-be83-95cbb8421000}, !- Layer 1
  {718a082a-6220-4140-bd9f-1428f746290b}, !- Layer 2
  {f1cebfa3-1445-4b13-ada8-6d40f11f0414}, !- Layer 3
  {cb1c40d8-0783-4e06-8694-a0f62f6acb27}; !- Layer 4

OS:StandardsInformation:Construction,
  {82aa1213-7111-47f7-b41f-5403a4c55d83}, !- Handle
  {3fe389e7-8b31-4342-a9d9-591d00dfa273}, !- Construction Name
  ExteriorWall,                           !- Intended Surface Type
  Mass;                                   !- Standards Construction Type

OS:Construction,
  {11142c25-f84b-41c9-80ec-e2de6b7e2c6a}, !- Handle
  ASHRAE 189.1-2009 ExtWall Mass ClimateZone alt-res 3, !- Name
  ,                                       !- Surface Rendering Name
  {8aea2796-9b27-4326-be83-95cbb8421000}, !- Layer 1
  {718a082a-6220-4140-bd9f-1428f746290b}, !- Layer 2
  {d6e7fd7e-c56c-424d-a2bf-234def14de4e}, !- Layer 3
  {cb1c40d8-0783-4e06-8694-a0f62f6acb27}; !- Layer 4

OS:StandardsInformation:Construction,
  {663adf5c-0733-468a-856d-a45c3f4b2d61}, !- Handle
  {11142c25-f84b-41c9-80ec-e2de6b7e2c6a}, !- Construction Name
  ExteriorWall,                           !- Intended Surface Type
  Mass;                                   !- Standards Construction Type

OS:Construction,
  {25a8d6f1-cd1c-4c65-9e20-ce331a771c40}, !- Handle
  ASHRAE 189.1-2009 ExtWall Mass ClimateZone alt-res 4, !- Name
  ,                                       !- Surface Rendering Name
  {8aea2796-9b27-4326-be83-95cbb8421000}, !- Layer 1
  {718a082a-6220-4140-bd9f-1428f746290b}, !- Layer 2
  {d955c924-b9b7-434e-9255-cd04ddd42b2f}, !- Layer 3
  {cb1c40d8-0783-4e06-8694-a0f62f6acb27}; !- Layer 4

OS:StandardsInformation:Construction,
  {36d6af31-0fa1-4da9-9d63-b2960d25ba4c}, !- Handle
  {25a8d6f1-cd1c-4c65-9e20-ce331a771c40}, !- Construction Name
  ExteriorWall,                           !- Intended Surface Type
  Mass;                                   !- Standards Construction Type

OS:Construction,
  {0b0b367d-4a7c-4a31-bf27-9d89a6d9cb10}, !- Handle
  ASHRAE 189.1-2009 ExtWall Mass ClimateZone alt-res 5, !- Name
  ,                                       !- Surface Rendering Name
  {8aea2796-9b27-4326-be83-95cbb8421000}, !- Layer 1
  {718a082a-6220-4140-bd9f-1428f746290b}, !- Layer 2
  {415fd38d-2644-4029-a676-33b00393a959}, !- Layer 3
  {cb1c40d8-0783-4e06-8694-a0f62f6acb27}; !- Layer 4

OS:StandardsInformation:Construction,
  {3e1b114b-fdb2-456e-919f-3513063a24c6}, !- Handle
  {0b0b367d-4a7c-4a31-bf27-9d89a6d9cb10}, !- Construction Name
  ExteriorWall,                           !- Intended Surface Type
  Mass;                                   !- Standards Construction Type

OS:Construction,
  {e3cf52ba-8fa7-4913-9d28-27310cf27190}, !- Handle
  ASHRAE 189.1-2009 ExtWall Mass ClimateZone alt-res 6, !- Name
  ,                                       !- Surface Rendering Name
  {8aea2796-9b27-4326-be83-95cbb8421000}, !- Layer 1
  {718a082a-6220-4140-bd9f-1428f746290b}, !- Layer 2
  {94e396ab-2ffe-4496-8e7a-55b45df4cdb9}, !- Layer 3
  {cb1c40d8-0783-4e06-8694-a0f62f6acb27}; !- Layer 4

OS:StandardsInformation:Construction,
  {157da901-aeee-4d77-9777-77c11b80e076}, !- Handle
  {e3cf52ba-8fa7-4913-9d28-27310cf27190}, !- Construction Name
  ExteriorWall,                           !- Intended Surface Type
  Mass;                                   !- Standards Construction Type

OS:Construction,
  {689b1257-b8b1-4c0a-9c44-cc37fa308b8a}, !- Handle
  ASHRAE 189.1-2009 ExtWall Mass ClimateZone alt-res 7, !- Name
  ,                                       !- Surface Rendering Name
  {8aea2796-9b27-4326-be83-95cbb8421000}, !- Layer 1
  {718a082a-6220-4140-bd9f-1428f746290b}, !- Layer 2
  {94e396ab-2ffe-4496-8e7a-55b45df4cdb9}, !- Layer 3
  {cb1c40d8-0783-4e06-8694-a0f62f6acb27}; !- Layer 4

OS:StandardsInformation:Construction,
  {1e7f26ce-937d-493b-bab6-85a5867dcc2b}, !- Handle
  {689b1257-b8b1-4c0a-9c44-cc37fa308b8a}, !- Construction Name
  ExteriorWall,                           !- Intended Surface Type
  Mass;                                   !- Standards Construction Type

OS:Construction,
  {ca93e0a1-c039-42da-b94a-4799ea948332}, !- Handle
  ASHRAE 189.1-2009 ExtWall Mass ClimateZone alt-res 8, !- Name