
OS:Version,
  {8eb3cc60-f072-46cf-b929-e63c24ed2e0c}, !- Handle
  1.3.3;                                  !- Version Identifier

OS:Construction,
  {8fde5bb6-fd43-41b7-b7eb-3e31a4d95e55}, !- Handle
  ASHRAE 189.1-2009 AtticFloor ClimateZone 1-8, !- Name
  ,                                       !- Surface Rendering Name
  {d9411c2d-d209-4f30-b0c8-f5c8e752d496}, !- Layer 1
  {0659d5d7-e717-402d-a088-47a08af69ba0}, !- Layer 2
  {d9411c2d-d209-4f30-b0c8-f5c8e752d496}; !- Layer 3

OS:StandardsInformation:Construction,
  {0a854fe1-3279-4a8f-84b9-88fd4942485a}, !- Handle
  {8fde5bb6-fd43-41b7-b7eb-3e31a4d95e55}, !- Construction Name
  AtticFloor,                             !- Intended Surface Type
  WoodFramed;                             !- Standards Construction Type

OS:Material,
  {d9411c2d-d209-4f30-b0c8-f5c8e752d496}, !- Handle
  1/2IN Gypsum,                           !- Name
  Smooth,                                 !- Roughness
  0.0127,                                 !- Thickness {m}
  0.16,                                   !- Conductivity {W/m-K}
  784.9,                                  !- Density {kg/m3}
  830.000000000001,                       !- Specific Heat {J/kg-K}
  0.9,                                    !- Thermal Absorptance
  0.4,                                    !- Solar Absorptance
  0.4;                                    !- Visible Absorptance

OS:Material,
  {0659d5d7-e717-402d-a088-47a08af69ba0}, !- Handle
  AtticFloor Insulation,                  !- Name
  MediumRough,                            !- Roughness
  0.2379,                                 !- Thickness {m}
  0.049,                                  !- Conductivity {W/m-K}
  265,                                    !- Density {kg/m3}
  836.800000000001,                       !- Specific Heat {J/kg-K}
  0.9,                                    !- Thermal Absorptance
  0.7,                                    !- Solar Absorptance
  0.7;                                    !- Visible Absorptance

OS:Construction,
  {04d16f9f-0f77-48a1-83e2-6c504db43aaf}, !- Handle
  ASHRAE 189.1-2009 ExtRoof IEAD ClimateZone 1, !- Name
  ,                                       !- Surface Rendering Name
  {c6509b9e-861b-442f-a7c7-e23b3c5ecd5e}, !- Layer 1
  {496bc550-ffff-463e-869b-040d3b961dfb}, !- Layer 2
  {921d2785-5582-4886-a177-87ed373b32e6}; !- Layer 3

OS:StandardsInformation:Construction,
  {c56c55a1-ef61-4d3e-9a7c-67afde10af6f}, !- Handle
  {04d16f9f-0f77-48a1-83e2-6c504db43aaf}, !- Construction Name
  ExteriorRoof,                           !- Intended Surface Type
  IEAD;                                   !- Standards Construction Type

OS:Material,
  {c6509b9e-861b-442f-a7c7-e23b3c5ecd5e}, !- Handle
  Roof Membrane,                          !- Name
  VeryRough,                              !- Roughness
  0.0095,                                 !- Thickness {m}
  0.16,                                   !- Conductivity {W/m-K}
  1121.29,                                !- Density {kg/m3}
  1460,                                   !- Specific Heat {J/kg-K}
  0.9,                                    !- Thermal Absorptance
  0.7,                                    !- Solar Absorptance
  0.7;                                    !- Visible Absorptance

OS:Material,
  {496bc550-ffff-463e-869b-040d3b961dfb}, !- Handle
  Roof Insulation [18],                   !- Name
  MediumRough,                            !- Roughness
  0.1693,                                 !- Thickness {m}
  0.049,                                  !- Conductivity {W/m-K}
  265,                                    !- Density {kg/m3}
  836.800000000001,                       !- Specific Heat {J/kg-K}
  0.9,                                    !- Thermal Absorptance
  0.7,                                    !- Solar Absorptance
  0.7;                                    !- Visible Absorptance

OS:Material,
  {921d2785-5582-4886-a177-87ed373b32e6}, !- Handle
  Metal Decking,                          !- Name
  MediumSmooth,                           !- Roughness
  0.0015,                                 !- Thickness {m}
  45.006,                                 !- Conductivity {W/m-K}
  7680,                                   !- Density {kg/m3}
  418.4,                                  !- Specific Heat {J/kg-K}
  0.9,                                    !- Thermal Absorptance
  0.6,                                    !- Solar Absorptance
  0.6;                                    !- Visible Absorptance

OS:Construction,
  {ee878c9c-42ac-4208-b799-dd50e2f39a8a}, !- Handle
  ASHRAE 189.1-2009 ExtRoof IEAD ClimateZone 2-5, !- Name
  ,                                       !- Surface Rendering Name
  {c6509b9e-861b-442f-a7c7-e23b3c5ecd5e}, !- Layer 1
  {843c1918-cefc-44a6-a179-f3982e7c8ba2}, !- Layer 2
  {921d2785-5582-4886-a177-87ed373b32e6}; !- Layer 3

OS:StandardsInformation:Construction,
  {2b90ae0c-fa93-49b3-9899-f7cb0dd705ab}, !- Handle
  {ee878c9c-42ac-4208-b799-dd50e2f39a8a}, !- Construction Name
  ExteriorRoof,                           !- Intended Surface Type
  IEAD;                                   !- Standards Construction Type

OS:Material,
  {843c1918-cefc-44a6-a179-f3982e7c8ba2}, !- Handle
  Roof Insulation [21],                   !- Name
  MediumRough,                            !- Roughness
  0.2105,                                 !- Thickness {m}
  0.049,                                  !- Conductivity {W/m-K}
  265,                                    !- Density {kg/m3}
  836.800000000001,                       !- Specific Heat {J/kg-K}
  0.9,                                    !- Thermal Absorptance
  0.7,                                    !- Solar Absorptance
  0.7;                                    !- Visible Absorptance

OS:Construction,
  {cc305bdd-82d7-4bb5-b7e8-771d300d3f04}, !- Handle
  ASHRAE 189.1-2009 ExtRoof IEAD ClimateZone 6, !- Name
  ,                                       !- Surface Rendering Name
  {c6509b9e-861b-442f-a7c7-e23b3c5ecd5e}, !- Layer 1
  {064c56c4-b0e3-45c6-aea8-fb3d7e904a60}, !- Layer 2
  {921d2785-5582-4886-a177-87ed373b32e6}; !- Layer 3

OS:StandardsInformation:Construction,
  {46dbfcf9-c286-4035-be5f-83dfc204b630}, !- Handle
  {cc305bdd-82d7-4bb5-b7e8-771d300d3f04}, !- Construction Name
  ExteriorRoof,                           !- Intended Surface Type
  IEAD;                                   !- Standards Construction Type

OS:Material,
  {064c56c4-b0e3-45c6-aea8-fb3d7e904a60}, !- Handle
  Roof Insulation [24],                   !- Name
  MediumRough,                            !- Roughness
  0.260100000000001,                      !- Thickness {m}
  0.049,                                  !- Conductivity {W/m-K}
  265,                                    !- Density {kg/m3}
  836.800000000001,                       !- Specific Heat {J/kg-K}
  0.9,                                    !- Thermal Absorptance
  0.7,                                    !- Solar Absorptance
  0.7;                                    !- Visible Absorptance

OS:Construction,
  {8a734106-2596-4bf0-a8ba-bfd92e8cc838}, !- Handle
  ASHRAE 189.1-2009 ExtRoof IEAD ClimateZone 7-8, !- Name
  ,                                       !- Surface Rendering Name
  {c6509b9e-861b-442f-a7c7-e23b3c5ecd5e}, !- Layer 1
  {b1aa50d9-19cb-4274-a2c6-e66b4384981c}, !- Layer 2
  {921d2785-5582-4886-a177-87ed373b32e6}; !- Layer 3

OS:StandardsInformation:Construction,
  {78dbb5aa-6b89-4349-835a-28535cbbd234}, !- Handle
  {8a734106-2596-4bf0-a8ba-bfd92e8cc838}, !- Construction Name
  ExteriorRoof,                           !- Intended Surface Type
  IEAD;                                   !- Standards Construction Type

OS:Material,
  {b1aa50d9-19cb-4274-a2c6-e66b4384981c}, !- Handle
  Roof Insulation [26],                   !- Name
  MediumRough,                            !- Roughness
  0.2941,                                 !- Thickness {m}
  0.049,                                  !- Conductivity {W/m-K}
  265,                                    !- Density {kg/m3}
  836.800000000001,                       !- Specific Heat {J/kg-K}
  0.9,                                    !- Thermal Absorptance
  0.7,                                    !- Solar Absorptance
  0.7;                                    !- Visible Absorptance

OS:Construction,
  {67e496c0-47f6-40ef-9511-7d925ce68d47}, !- Handle
  ASHRAE 189.1-2009 ExtRoof Metal ClimateZone 1, !- Name
  ,                                       !- Surface Rendering Name
  {ec81f50a-9e53-44a1-97af-65feaf118fb3}, !- Layer 1
  {385ffd98-b090-442f-916b-8383300873fb}, !- Layer 2
  {921d2785-5582-4886-a177-87ed373b32e6}; !- Layer 3

OS:StandardsInformation:Construction,
  {ab9ac00f-476e-48a9-b99f-f0ca4bc17894}, !- Handle
  {67e496c0-47f6-40ef-9511-7d925ce68d47}, !- Construction Name
  ExteriorRoof,                           !- Intended Surface Type
  Metal;                                  !- Standards Construction Type

OS:Material,
  {ec81f50a-9e53-44a1-97af-65feaf118fb3}, !- Handle
  Metal Roofing,                          !- Name
  MediumSmooth,                           !- Roughness
  0.0015,                                 !- Thickness {m}
  45.006,                                 !- Conductivity {W/m-K}
  7680,                                   !- Density {kg/m3}
  418.4,                                  !- Specific Heat {J/kg-K}
  0.9,                                    !- Thermal Absorptance
  0.6,                                    !- Solar Absorptance
  0.6;                                    !- Visible Absorptance

OS:Material,
  {385ffd98-b090-442f-916b-8383300873fb}, !- Handle
  Roof Insulation [19],                   !- Name
  MediumRough,                            !- Roughness
  0.1868,                                 !- Thickness {m}
  0.049,                                  !- Conductivity {W/m-K}
  265,                                    !- Density {kg/m3}
  836.800000000001,                       !- Specific Heat {J/kg-K}
  0.9,                                    !- Thermal Absorptance
  0.7,                                    !- Solar Absorptance
  0.7;                                    !- Visible Absorptance

OS:Construction,
  {bde53ff2-8d9c-4aa0-8a27-40b7f992ea26}, !- Handle
  ASHRAE 189.1-2009 ExtRoof Metal ClimateZone 2-5, !- Name
  ,                                       !- Surface Rendering Name
  {ec81f50a-9e53-44a1-97af-65feaf118fb3}, !- Layer 1
  {b9e2d06d-20a5-462b-a701-8ffeb4db5b85}, !- Layer 2
  {921d2785-5582-4886-a177-87ed373b32e6}; !- Layer 3

OS:StandardsInformation:Construction,
  {5b0a980a-158d-468a-a842-68871ab9b488}, !- Handle
  {bde53ff2-8d9c-4aa0-8a27-40b7f992ea26}, !- Construction Name
  ExteriorRoof,                           !- Intended Surface Type
  Metal;                                  !- Standards Construction Type

OS:Material,
  {b9e2d06d-20a5-462b-a701-8ffeb4db5b85}, !- Handle
  Roof Insulation [22],                   !- Name
  MediumRough,                            !- Roughness
  0.2358,                                 !- Thickness {m}
  0.049,                                  !- Conductivity {W/m-K}
  265,                                    !- Density {kg/m3}
  836.800000000001,                       !- Specific Heat {J/kg-K}
  0.9,                                    !- Thermal Absorptance
  0.7,                                    !- Solar Absorptance
  0.7;                                    !- Visible Absorptance

OS:Construction,
  {5aa4f212-673e-45f6-9a80-b84fb161e61b}, !- Handle
  ASHRAE 189.1-2009 ExtRoof Metal ClimateZone 6, !- Name
  ,                                       !- Surface Rendering Name
  {ec81f50a-9e53-44a1-97af-65feaf118fb3}, !- Layer 1
  {c04ae5d1-7d28-4ff0-88ca-455412f1b4cc}, !- Layer 2
  {921d2785-5582-4886-a177-87ed373b32e6}; !- Layer 3

OS:StandardsInformation:Construction,
  {e66437db-479d-4eea-a7f6-0e4635f94f52}, !- Handle
  {5aa4f212-673e-45f6-9a80-b84fb161e61b}, !- Construction Name
  ExteriorRoof,                           !- Intended Surface Type
  Metal;                                  !- Standards Construction Type

OS:Material,
  {c04ae5d1-7d28-4ff0-88ca-455412f1b4cc}, !- Handle
  Roof Insulation [25],                   !- Name
  MediumRough,                            !- Roughness
  0.263,                                  !- Thickness {m}
  0.049,                                  !- Conductivity {W/m-K}
  265,                                    !- Density {kg/m3}
  836.800000000001,                       !- Specific Heat {J/kg-K}
  0.9,                                    !- Thermal Absorptance
  0.7,                                    !- Solar Absorptance
  0.7;                                    !- Visible Absorptance

OS:Construction,
  {a6d66715-a927-459a-bf59-0bb7ef465eef}, !- Handle
  ASHRAE 189.1-2009 ExtRoof Metal ClimateZone 7-8, !- Name
  ,                                       !- Surface Rendering Name
  {ec81f50a-9e53-44a1-97af-65feaf118fb3}, !- Layer 1
  {25764658-2310-44f6-98b0-5286ce70b45d}, !- Layer 2
  {921d2785-5582-4886-a177-87ed373b32e6}; !- Layer 3

OS:StandardsInformation:Construction,
  {b5029f14-765a-438a-a86a-3877085b06ba}, !- Handle
  {a6d66715-a927-459a-bf59-0bb7ef465eef}, !- Construction Name
  ExteriorRoof,                           !- Intended Surface Type
  Metal;                                  !- Standards Construction Type

OS:Material,
  {25764658-2310-44f6-98b0-5286ce70b45d}, !- Handle
  Roof Insulation [27],                   !- Name
  MediumRough,                            !- Roughness
  0.297000000000001,                      !- Thickness {m}
  0.049,                                  !- Conductivity {W/m-K}
  265,                                    !- Density {kg/m3}
  836.800000000001,                       !- Specific Heat {J/kg-K}
  0.9,                                    !- Thermal Absorptance
  0.7,                                    !- Solar Absorptance
  0.7;                                    !- Visible Absorptance

OS:Construction,
  {4a794f8e-68da-49ba-808a-6763e4727786}, !- Handle
  ASHRAE 189.1-2009 ExtWall Mass ClimateZone 1, !- Name
  ,                                       !- Surface Rendering Name
  {441529cd-d08c-4a1f-9b27-df4804ca6167}, !- Layer 1
  {fa3a3b03-c73a-4056-b852-55addd309dd0}, !- Layer 2
  {c56da959-92f1-4ea1-a4f9-d52208c9aa57}, !- Layer 3
  {d9411c2d-d209-4f30-b0c8-f5c8e752d496}; !- Layer 4

OS:StandardsInformation:Construction,
  {d5b86884-050d-43f1-8806-076eb465f7ce}, !- Handle
  {4a794f8e-68da-49ba-808a-6763e4727786}, !- Construction Name
  ExteriorWall,                           !- Intended Surface Type
  Mass;                                   !- Standards Construction Type

OS:Material,
  {441529cd-d08c-4a1f-9b27-df4804ca6167}, !- Handle
  1IN Stucco,                             !- Name
  Smooth,                                 !- Roughness
  0.0253,                                 !- Thickness {m}
  0.691799999999999,                      !- Conductivity {W/m-K}
  1858,                                   !- Density {kg/m3}
  836.999999999999,                       !- Specific Heat {J/kg-K}
  0.9,                                    !- Thermal Absorptance
  0.92,                                   !- Solar Absorptance
  0.92;                                   !- Visible Absorptance

OS:Material,
  {fa3a3b03-c73a-4056-b852-55addd309dd0}, !- Handle
  8IN Concrete HW,                        !- Name
  MediumRough,                            !- Roughness
  0.2033,                                 !- Thickness {m}
  1.72959999999999,                       !- Conductivity {W/m-K}
  2242.99999999999,                       !- Density {kg/m3}
  836.999999999999,                       !- Specific Heat {J/kg-K}
  0.9,                                    !- Thermal Absorptance
  0.65,                                   !- Solar Absorptance
  0.65;                                   !- Visible Absorptance

OS:Material,
  {c56da959-92f1-4ea1-a4f9-d52208c9aa57}, !- Handle
  Wall Insulation [31],                   !- Name
  MediumRough,                            !- Roughness
  0.0337000000000001,                     !- Thickness {m}
  0.0432,                                 !- Conductivity {W/m-K}
  91,                                     !- Density {kg/m3}
  836.999999999999,                       !- Specific Heat {J/kg-K}
  0.9,                                    !- Thermal Absorptance
  0.5,                                    !- Solar Absorptance
  0.5;                                    !- Visible Absorptance

OS:Construction,
  {738da9cb-e1ef-4801-9c38-8aa9b9a833ff}, !- Handle
  ASHRAE 189.1-2009 ExtWall Mass ClimateZone 2, !- Name
  ,                                       !- Surface Rendering Name
  {441529cd-d08c-4a1f-9b27-df4804ca6167}, !- Layer 1
  {fa3a3b03-c73a-4056-b852-55addd309dd0}, !- Layer 2
  {797825a8-2063-4e96-9361-01b77e54154c}, !- Layer 3
  {d9411c2d-d209-4f30-b0c8-f5c8e752d496}; !- Layer 4

OS:StandardsInformation:Construction,
  {121c0cb3-f6d6-4f5a-b297-a51da8ab7378}, !- Handle
  {738da9cb-e1ef-4801-9c38-8aa9b9a833ff}, !- Construction Name
  ExteriorWall,                           !- Intended Surface Type
  Mass;                                   !- Standards Construction Type

OS:Material,
  {797825a8-2063-4e96-9361-01b77e54154c}, !- Handle
  Wall Insulation [35],                   !- Name
  MediumRough,                            !- Roughness
  0.0452,                                 !- Thickness {m}
  0.0432,                                 !- Conductivity {W/m-K}
  91,                                     !- Density {kg/m3}
  836.999999999999,                       !- Specific Heat {J/kg-K}
  0.9,                                    !- Thermal Absorptance
  0.5,                                    !- Solar Absorptance
  0.5;                                    !- Visible Absorptance

OS:Construction,
  {c920ea9f-fab5-4171-9514-a8eadb336458}, !- Handle
  ASHRAE 189.1-2009 ExtWall Mass ClimateZone 3, !- Name
  ,                                       !- Surface Rendering Name
  {441529cd-d08c-4a1f-9b27-df4804ca6167}, !- Layer 1
  {fa3a3b03-c73a-4056-b852-55addd309dd0}, !- Layer 2
  {02feedf3-77d5-4b85-84e4-9ee36930002e}, !- Layer 3
  {d9411c2d-d209-4f30-b0c8-f5c8e752d496}; !- Layer 4

OS:StandardsInformation:Construction,
  {341899f9-5361-4ca9-863a-b2d3c82aa134}, !- Handle
  {c920ea9f-fab5-4171-9514-a8eadb336458}, !- Construction Name
  ExteriorWall,                           !- Intended Surface Type
  Mass;                                   !- Standards Construction Type

OS:Material,
  {02feedf3-77d5-4b85-84e4-9ee36930002e}, !- Handle
  Wall Insulation [36],                   !- Name
  MediumRough,                            !- Roughness
  0.0565999999999999,                     !- Thickness {m}
  0.0432,                                 !- Conductivity {W/m-K}
  91,                                     !- Density {kg/m3}
  836.999999999999,                       !- Specific Heat {J/kg-K}
  0.9,                                    !- Thermal Absorptance
  0.5,                                    !- Solar Absorptance
  0.5;                                    !- Visible Absorptance

OS:Construction,
  {a6e950a2-363b-4370-a153-252646e00f09}, !- Handle
  ASHRAE 189.1-2009 ExtWall Mass ClimateZone 4, !- Name
  ,                                       !- Surface Rendering Name
  {441529cd-d08c-4a1f-9b27-df4804ca6167}, !- Layer 1
  {fa3a3b03-c73a-4056-b852-55addd309dd0}, !- Layer 2
  {108e9e29-6094-4f5e-abca-07a2c860bfdb}, !- Layer 3
  {d9411c2d-d209-4f30-b0c8-f5c8e752d496}; !- Layer 4

OS:StandardsInformation:Construction,
  {b36160b9-3b39-47b2-96f4-19fd75db809d}, !- Handle
  {a6e950a2-363b-4370-a153-252646e00f09}, !- Construction Name
  ExteriorWall,                           !- Intended Surface Type
  Mass;                                   !- Standards Construction Type

OS:Material,
  {108e9e29-6094-4f5e-abca-07a2c860bfdb}, !- Handle
  Wall Insulation [37],                   !- Name
  MediumRough,                            !- Roughness
  0.0680999999999999,                     !- Thickness {m}
  0.0432,                                 !- Conductivity {W/m-K}
  91,                                     !- Density {kg/m3}
  836.999999999999,                       !- Specific Heat {J/kg-K}
  0.9,                                    !- Thermal Absorptance
  0.5,                                    !- Solar Absorptance
  0.5;                                    !- Visible Absorptance

OS:Construction,
  {9406b623-3f46-44f3-bd01-1bbb4060308e}, !- Handle
  ASHRAE 189.1-2009 ExtWall Mass ClimateZone 5, !- Name
  ,                                       !- Surface Rendering Name
  {441529cd-d08c-4a1f-9b27-df4804ca6167}, !- Layer 1
  {fa3a3b03-c73a-4056-b852-55addd309dd0}, !- Layer 2
  {aeb037a7-bbb4-4b79-ab3b-e8e59b1de360}, !- Layer 3
  {d9411c2d-d209-4f30-b0c8-f5c8e752d496}; !- Layer 4

OS:StandardsInformation:Construction,
  {bd242aec-f7bf-4813-a8bf-e2b56b38f857}, !- Handle
  {9406b623-3f46-44f3-bd01-1bbb4060308e}, !- Construction Name
  ExteriorWall,                           !- Intended Surface Type
  Mass;                                   !- Standards Construction Type

OS:Material,
  {aeb037a7-bbb4-4b79-ab3b-e8e59b1de360}, !- Handle
  Wall Insulation [40],                   !- Name
  MediumRough,                            !- Roughness
  0.0793999999999999,                     !- Thickness {m}
  0.0432,                                 !- Conductivity {W/m-K}
  91,                                     !- Density {kg/m3}
  836.999999999999,                       !- Specific Heat {J/kg-K}
  0.9,                                    !- Thermal Absorptance
  0.5,                                    !- Solar Absorptance
  0.5;                                    !- Visible Absorptance

OS:Construction,
  {8797f299-6cdd-4b58-a5a4-ae7a11c2d9bf}, !- Handle
  ASHRAE 189.1-2009 ExtWall Mass ClimateZone 6, !- Name
  ,                                       !- Surface Rendering Name
  {441529cd-d08c-4a1f-9b27-df4804ca6167}, !- Layer 1
  {fa3a3b03-c73a-4056-b852-55addd309dd0}, !- Layer 2
  {db624186-16b7-4f27-86a9-fde6679ca83f}, !- Layer 3
  {d9411c2d-d209-4f30-b0c8-f5c8e752d496}; !- Layer 4

OS:StandardsInformation:Construction,
  {63e6dd77-903d-4830-bb23-48a5a5f38276}, !- Handle
  {8797f299-6cdd-4b58-a5a4-ae7a11c2d9bf}, !- Construction Name
  ExteriorWall,                           !- Intended Surface Type
  Mass;                                   !- Standards Construction Type

OS:Material,
  {db624186-16b7-4f27-86a9-fde6679ca83f}, !- Handle
  Wall Insulation [42],                   !- Name
  MediumRough,                            !- Roughness
  0.0913999999999999,                     !- Thickness {m}
  0.0432,                                 !- Conductivity {W/m-K}
  91,                                     !- Density {kg/m3}
  836.999999999999,                       !- Specific Heat {J/kg-K}
  0.9,                                    !- Thermal Absorptance
  0.5,                                    !- Solar Absorptance
  0.5;                                    !- Visible Absorptance

OS:Construction,
  {84ff5cd7-7d9a-4ad1-a95e-cbfd7da088f4}, !- Handle
  ASHRAE 189.1-2009 ExtWall Mass ClimateZone 7-8, !- Name
  ,                                       !- Surface Rendering Name
  {441529cd-d08c-4a1f-9b27-df4804ca6167}, !- Layer 1
  {fa3a3b03-c73a-4056-b852-55addd309dd0}, !- Layer 2
  {be42fc89-4c28-4529-a60a-ef0544abc725}, !- Layer 3
  {d9411c2d-d209-4f30-b0c8-f5c8e752d496}; !- Layer 4

OS:StandardsInformation:Construction,
  {b0125840-3447-4e93-b17b-26838ffa6ead}, !- Handle
  {84ff5cd7-7d9a-4ad1-a95e-cbfd7da088f4}, !- Construction Name
  ExteriorWall,                           !- Intended Surface Type
  Mass;                                   !- Standards Construction Type

OS:Material,
  {be42fc89-4c28-4529-a60a-ef0544abc725}, !- Handle
  Wall Insulation [44],                   !- Name
  MediumRough,                            !- Roughness
  0.1104,                                 !- Thickness {m}
  0.0432,                                 !- Conductivity {W/m-K}
  91,                                     !- Density {kg/m3}
  836.999999999999,                       !- Specific Heat {J/kg-K}
  0.9,                                    !- Thermal Absorptance
  0.5,                                    !- Solar Absorptance
  0.5;                                    !- Visible Absorptance

OS:Construction,
  {7382c0c5-45ff-40e8-ba15-76a7dfafda4d}, !- Handle
  ASHRAE 189.1-2009 ExtWall Mass ClimateZone alt-res 1, !- Name
  ,                                       !- Surface Rendering Name
  {441529cd-d08c-4a1f-9b27-df4804ca6167}, !- Layer 1
  {fa3a3b03-c73a-4056-b852-55addd309dd0}, !- Layer 2
  {797825a8-2063-4e96-9361-01b77e54154c}, !- Layer 3
  {d9411c2d-d209-4f30-b0c8-f5c8e752d496}; !- Layer 4

OS:StandardsInformation:Construction,
  {14a7094b-ec8c-4f69-ab04-c466a744939b}, !- Handle
  {7382c0c5-45ff-40e8-ba15-76a7dfafda4d}, !- Construction Name
  ExteriorWall,                           !- Intended Surface Type
  Mass;                                   !- Standards Construction Type

OS:Construction,
  {8db12993-c7d2-4ace-a2aa-6fb4e5485483}, !- Handle
  ASHRAE 189.1-2009 ExtWall Mass ClimateZone alt-res 2, !- Name
  ,                                       !- Surface Rendering Name
  {441529cd-d08c-4a1f-9b27-df4804ca6167}, !- Layer 1
  {fa3a3b03-c73a-4056-b852-55addd309dd0}, !- Layer 2
  {02feedf3-77d5-4b85-84e4-9ee36930002e}, !- Layer 3
  {d9411c2d-d209-4f30-b0c8-f5c8e752d496}; !- Layer 4

OS:StandardsInformation:Construction,
  {3f8b8133-85a7-4947-8e40-0e839fc17537}, !- Handle
  {8db12993-c7d2-4ace-a2aa-6fb4e5485483}, !- Construction Name
  ExteriorWall,                           !- Intended Surface Type
  Mass;                                   !- Standards Construction Type

OS:Construction,
  {de7c9ed1-0827-4abe-a348-72adefdfbe19}, !- Handle
  ASHRAE 189.1-2009 ExtWall Mass ClimateZone alt-res 3, !- Name
  ,                                       !- Surface Rendering Name
  {441529cd-d08c-4a1f-9b27-df4804ca6167}, !- Layer 1
  {fa3a3b03-c73a-4056-b852-55addd309dd0}, !- Layer 2
  {108e9e29-6094-4f5e-abca-07a2c860bfdb}, !- Layer 3
  {d9411c2d-d209-4f30-b0c8-f5c8e752d496}; !- Layer 4

OS:StandardsInformation:Construction,
  {e22aa9e4-8ac0-447a-89c3-0a094557d27c}, !- Handle
  {de7c9ed1-0827-4abe-a348-72adefdfbe19}, !- Construction Name
  ExteriorWall,                           !- Intended Surface Type
  Mass;                                   !- Standards Construction Type

OS:Construction,
  {15c7fb5e-1e08-4132-89a1-ae50ff54d7ca}, !- Handle
  ASHRAE 189.1-2009 ExtWall Mass ClimateZone alt-res 4, !- Name
  ,                                       !- Surface Rendering Name
  {441529cd-d08c-4a1f-9b27-df4804ca6167}, !- Layer 1
  {fa3a3b03-c73a-4056-b852-55addd309dd0}, !- Layer 2
  {aeb037a7-bbb4-4b79-ab3b-e8e59b1de360}, !- Layer 3
  {d9411c2d-d209-4f30-b0c8-f5c8e752d496}; !- Layer 4

OS:StandardsInformation:Construction,
  {5af424b8-684f-4433-9e7b-04b08ee826ff}, !- Handle
  {15c7fb5e-1e08-4132-89a1-ae50ff54d7ca}, !- Construction Name
  ExteriorWall,                           !- Intended Surface Type
  Mass;                                   !- Standards Construction Type

OS:Construction,
  {278e930a-ad64-4c8e-b726-1392afe6638d}, !- Handle
  ASHRAE 189.1-2009 ExtWall Mass ClimateZone alt-res 5, !- Name
  ,                                       !- Surface Rendering Name
  {441529cd-d08c-4a1f-9b27-df4804ca6167}, !- Layer 1
  {fa3a3b03-c73a-4056-b852-55addd309dd0}, !- Layer 2
  {db624186-16b7-4f27-86a9-fde6679ca83f}, !- Layer 3
  {d9411c2d-d209-4f30-b0c8-f5c8e752d496}; !- Layer 4

OS:StandardsInformation:Construction,
  {2a4afdaa-aa41-4cf8-9b50-fc3242254428}, !- Handle
  {278e930a-ad64-4c8e-b726-1392afe6638d}, !- Construction Name
  ExteriorWall,                           !- Intended Surface Type
  Mass;                                   !- Standards Construction Type

OS:Construction,
  {124c7901-a78e-41d8-a3f6-fd0bce2fb8e9}, !- Handle
  ASHRAE 189.1-2009 ExtWall Mass ClimateZone alt-res 6, !- Name
  ,                                       !- Surface Rendering Name
  {441529cd-d08c-4a1f-9b27-df4804ca6167}, !- Layer 1
  {fa3a3b03-c73a-4056-b852-55addd309dd0}, !- Layer 2
  {be42fc89-4c28-4529-a60a-ef0544abc725}, !- Layer 3
  {d9411c2d-d209-4f30-b0c8-f5c8e752d496}; !- Layer 4

OS:StandardsInformation:Construction,
  {f65250a9-f4cc-48b1-868a-88bbff415931}, !- Handle
  {124c7901-a78e-41d8-a3f6-fd0bce2fb8e9}, !- Construction Name
  ExteriorWall,                           !- Intended Surface Type
  Mass;                                   !- Standards Construction Type

OS:Construction,
  {405afb8e-d25a-439e-b43c-7941753846a3}, !- Handle
  ASHRAE 189.1-2009 ExtWall Mass ClimateZone alt-res 7, !- Name
  ,                                       !- Surface Rendering Name
  {441529cd-d08c-4a1f-9b27-df4804ca6167}, !- Layer 1
  {fa3a3b03-c73a-4056-b852-55addd309dd0}, !- Layer 2
  {be42fc89-4c28-4529-a60a-ef0544abc725}, !- Layer 3
  {d9411c2d-d209-4f30-b0c8-f5c8e752d496}; !- Layer 4

OS:StandardsInformation:Construction,
  {6dc2549d-485b-4bc1-b029-cf23388d590e}, !- Handle
  {405afb8e-d25a-439e-b43c-7941753846a3}, !- Construction Name
  ExteriorWall,                           !- Intended Surface Type