
OS:Version,
  {ba4e4d16-20dc-41b6-817d-438695b4a912}, !- Handle
  1.4.0;                                  !- Version Identifier

OS:Construction,
  {a112c9ae-44e1-4a0d-bb45-c55d65ce5419}, !- Handle
  ASHRAE 189.1-2009 AtticFloor ClimateZone 1-8, !- Name
  ,                                       !- Surface Rendering Name
  {76b38bba-85b2-4e30-a923-d239312e6368}, !- Layer 1
  {3c215f0a-f995-4a45-9c63-f45429cac48c}, !- Layer 2
  {76b38bba-85b2-4e30-a923-d239312e6368}; !- Layer 3

OS:StandardsInformation:Construction,
  {d67df4b8-6523-4099-bc1a-b6137135f078}, !- Handle
  {a112c9ae-44e1-4a0d-bb45-c55d65ce5419}, !- Construction Name
  AtticFloor,                             !- Intended Surface Type
  WoodFramed;                             !- Standards Construction Type

OS:Material,
  {76b38bba-85b2-4e30-a923-d239312e6368}, !- Handle
  1/2IN Gypsum,                           !- Name
  Smooth,                                 !- Roughness
  0.0127,                                 !- Thickness {m}
  0.16,                                   !- Conductivity {W/m-K}
  784.9,                                  !- Density {kg/m3}
  830.000000000001,                       !- Specific Heat {J/kg-K}
  0.9,                                    !- Thermal Absorptance
  0.4,                                    !- Solar Absorptance
  0.4;                                    !- Visible Absorptance

OS:Material,
  {3c215f0a-f995-4a45-9c63-f45429cac48c}, !- Handle
  AtticFloor Insulation,                  !- Name
  MediumRough,                            !- Roughness
  0.2379,                                 !- Thickness {m}
  0.049,                                  !- Conductivity {W/m-K}
  265,                                    !- Density {kg/m3}
  836.800000000001,                       !- Specific Heat {J/kg-K}
  0.9,                                    !- Thermal Absorptance
  0.7,                                    !- Solar Absorptance
  0.7;                                    !- Visible Absorptance

OS:Construction,
  {736f1a64-748e-4f53-a865-59e722d27b69}, !- Handle
  ASHRAE 189.1-2009 ExtRoof IEAD ClimateZone 1, !- Name
  ,                                       !- Surface Rendering Name
  {36ae338d-e0c6-4843-9cac-24f6e5799dd1}, !- Layer 1
  {acb908dd-cbcd-48c1-bf13-54d1a3927895}, !- Layer 2
  {43cc8078-7300-4227-b7f8-42581819cef8}; !- Layer 3

OS:StandardsInformation:Construction,
  {7fdedd2a-b065-41f5-807e-19ebe9bebd0d}, !- Handle
  {736f1a64-748e-4f53-a865-59e722d27b69}, !- Construction Name
  ExteriorRoof,                           !- Intended Surface Type
  IEAD;                                   !- Standards Construction Type

OS:Material,
  {36ae338d-e0c6-4843-9cac-24f6e5799dd1}, !- Handle
  Roof Membrane,                          !- Name
  VeryRough,                              !- Roughness
  0.0095,                                 !- Thickness {m}
  0.16,                                   !- Conductivity {W/m-K}
  1121.29,                                !- Density {kg/m3}
  1460,                                   !- Specific Heat {J/kg-K}
  0.9,                                    !- Thermal Absorptance
  0.7,                                    !- Solar Absorptance
  0.7;                                    !- Visible Absorptance

OS:Material,
  {acb908dd-cbcd-48c1-bf13-54d1a3927895}, !- Handle
  Roof Insulation [18],                   !- Name
  MediumRough,                            !- Roughness
  0.1693,                                 !- Thickness {m}
  0.049,                                  !- Conductivity {W/m-K}
  265,                                    !- Density {kg/m3}
  836.800000000001,                       !- Specific Heat {J/kg-K}
  0.9,                                    !- Thermal Absorptance
  0.7,                                    !- Solar Absorptance
  0.7;                                    !- Visible Absorptance

OS:Material,
  {43cc8078-7300-4227-b7f8-42581819cef8}, !- Handle
  Metal Decking,                          !- Name
  MediumSmooth,                           !- Roughness
  0.0015,                                 !- Thickness {m}
  45.006,                                 !- Conductivity {W/m-K}
  7680,                                   !- Density {kg/m3}
  418.4,                                  !- Specific Heat {J/kg-K}
  0.9,                                    !- Thermal Absorptance
  0.6,                                    !- Solar Absorptance
  0.6;                                    !- Visible Absorptance

OS:Construction,
  {5ede6526-ae6e-4cb4-8bd0-48c0facea6ee}, !- Handle
  ASHRAE 189.1-2009 ExtRoof IEAD ClimateZone 2-5, !- Name
  ,                                       !- Surface Rendering Name
  {36ae338d-e0c6-4843-9cac-24f6e5799dd1}, !- Layer 1
  {a5455f18-dde2-4acc-827f-bd1fc93598bc}, !- Layer 2
  {43cc8078-7300-4227-b7f8-42581819cef8}; !- Layer 3

OS:StandardsInformation:Construction,
  {915ba5aa-9b1b-4f26-a8d4-c47de374c200}, !- Handle
  {5ede6526-ae6e-4cb4-8bd0-48c0facea6ee}, !- Construction Name
  ExteriorRoof,                           !- Intended Surface Type
  IEAD;                                   !- Standards Construction Type

OS:Material,
  {a5455f18-dde2-4acc-827f-bd1fc93598bc}, !- Handle
  Roof Insulation [21],                   !- Name
  MediumRough,                            !- Roughness
  0.2105,                                 !- Thickness {m}
  0.049,                                  !- Conductivity {W/m-K}
  265,                                    !- Density {kg/m3}
  836.800000000001,                       !- Specific Heat {J/kg-K}
  0.9,                                    !- Thermal Absorptance
  0.7,                                    !- Solar Absorptance
  0.7;                                    !- Visible Absorptance

OS:Construction,
  {50ef3d99-75f2-4af5-b544-41ee18cec8c6}, !- Handle
  ASHRAE 189.1-2009 ExtRoof IEAD ClimateZone 6, !- Name
  ,                                       !- Surface Rendering Name
  {36ae338d-e0c6-4843-9cac-24f6e5799dd1}, !- Layer 1
  {8c91ec46-5488-4132-8f02-31146d4e4b5c}, !- Layer 2
  {43cc8078-7300-4227-b7f8-42581819cef8}; !- Layer 3

OS:StandardsInformation:Construction,
  {954bb6af-7aff-47df-8944-17ef0272ff17}, !- Handle
  {50ef3d99-75f2-4af5-b544-41ee18cec8c6}, !- Construction Name
  ExteriorRoof,                           !- Intended Surface Type
  IEAD;                                   !- Standards Construction Type

OS:Material,
  {8c91ec46-5488-4132-8f02-31146d4e4b5c}, !- Handle
  Roof Insulation [24],                   !- Name
  MediumRough,                            !- Roughness
  0.260100000000001,                      !- Thickness {m}
  0.049,                                  !- Conductivity {W/m-K}
  265,                                    !- Density {kg/m3}
  836.800000000001,                       !- Specific Heat {J/kg-K}
  0.9,                                    !- Thermal Absorptance
  0.7,                                    !- Solar Absorptance
  0.7;                                    !- Visible Absorptance

OS:Construction,
  {6e58d4d1-ac38-46ab-b300-58371314bada}, !- Handle
  ASHRAE 189.1-2009 ExtRoof IEAD ClimateZone 7-8, !- Name
  ,                                       !- Surface Rendering Name
  {36ae338d-e0c6-4843-9cac-24f6e5799dd1}, !- Layer 1
  {49a7cab8-067f-4335-ad87-77701f084e2d}, !- Layer 2
  {43cc8078-7300-4227-b7f8-42581819cef8}; !- Layer 3

OS:StandardsInformation:Construction,
  {e7a779fe-22db-43df-83da-f728214f43e6}, !- Handle
  {6e58d4d1-ac38-46ab-b300-58371314bada}, !- Construction Name
  ExteriorRoof,                           !- Intended Surface Type
  IEAD;                                   !- Standards Construction Type

OS:Material,
  {49a7cab8-067f-4335-ad87-77701f084e2d}, !- Handle
  Roof Insulation [26],                   !- Name
  MediumRough,                            !- Roughness
  0.2941,                                 !- Thickness {m}
  0.049,                                  !- Conductivity {W/m-K}
  265,                                    !- Density {kg/m3}
  836.800000000001,                       !- Specific Heat {J/kg-K}
  0.9,                                    !- Thermal Absorptance
  0.7,                                    !- Solar Absorptance
  0.7;                                    !- Visible Absorptance

OS:Construction,
  {88f6a9da-1beb-456e-9eb1-e727988520a1}, !- Handle
  ASHRAE 189.1-2009 ExtRoof Metal ClimateZone 1, !- Name
  ,                                       !- Surface Rendering Name
  {bf3e4834-12aa-4fff-a46d-7af0481416c2}, !- Layer 1
  {12c8cc44-083b-4733-b3b4-fd0e25e1b710}, !- Layer 2
  {43cc8078-7300-4227-b7f8-42581819cef8}; !- Layer 3

OS:StandardsInformation:Construction,
  {a951ef34-2e23-41dc-959c-7f666209a3f3}, !- Handle
  {88f6a9da-1beb-456e-9eb1-e727988520a1}, !- Construction Name
  ExteriorRoof,                           !- Intended Surface Type
  Metal;                                  !- Standards Construction Type

OS:Material,
  {bf3e4834-12aa-4fff-a46d-7af0481416c2}, !- Handle
  Metal Roofing,                          !- Name
  MediumSmooth,                           !- Roughness
  0.0015,                                 !- Thickness {m}
  45.006,                                 !- Conductivity {W/m-K}
  7680,                                   !- Density {kg/m3}
  418.4,                                  !- Specific Heat {J/kg-K}
  0.9,                                    !- Thermal Absorptance
  0.6,                                    !- Solar Absorptance
  0.6;                                    !- Visible Absorptance

OS:Material,
  {12c8cc44-083b-4733-b3b4-fd0e25e1b710}, !- Handle
  Roof Insulation [19],                   !- Name
  MediumRough,                            !- Roughness
  0.1868,                                 !- Thickness {m}
  0.049,                                  !- Conductivity {W/m-K}
  265,                                    !- Density {kg/m3}
  836.800000000001,                       !- Specific Heat {J/kg-K}
  0.9,                                    !- Thermal Absorptance
  0.7,                                    !- Solar Absorptance
  0.7;                                    !- Visible Absorptance

OS:Construction,
  {ba5a5846-7f1b-43a7-88ea-fc17359821c3}, !- Handle
  ASHRAE 189.1-2009 ExtRoof Metal ClimateZone 2-5, !- Name
  ,                                       !- Surface Rendering Name
  {bf3e4834-12aa-4fff-a46d-7af0481416c2}, !- Layer 1
  {61533a52-e5b3-45f5-85df-45ae372351aa}, !- Layer 2
  {43cc8078-7300-4227-b7f8-42581819cef8}; !- Layer 3

OS:StandardsInformation:Construction,
  {b78d9da1-945c-4835-b914-323c17272d0c}, !- Handle
  {ba5a5846-7f1b-43a7-88ea-fc17359821c3}, !- Construction Name
  ExteriorRoof,                           !- Intended Surface Type
  Metal;                                  !- Standards Construction Type

OS:Material,
  {61533a52-e5b3-45f5-85df-45ae372351aa}, !- Handle
  Roof Insulation [22],                   !- Name
  MediumRough,                            !- Roughness
  0.2358,                                 !- Thickness {m}
  0.049,                                  !- Conductivity {W/m-K}
  265,                                    !- Density {kg/m3}
  836.800000000001,                       !- Specific Heat {J/kg-K}
  0.9,                                    !- Thermal Absorptance
  0.7,                                    !- Solar Absorptance
  0.7;                                    !- Visible Absorptance

OS:Construction,
  {e531fdc2-2836-4173-80d7-3fd9290a58bc}, !- Handle
  ASHRAE 189.1-2009 ExtRoof Metal ClimateZone 6, !- Name
  ,                                       !- Surface Rendering Name
  {bf3e4834-12aa-4fff-a46d-7af0481416c2}, !- Layer 1
  {f6174f46-21e8-4952-9ceb-78e3885c415e}, !- Layer 2
  {43cc8078-7300-4227-b7f8-42581819cef8}; !- Layer 3

OS:StandardsInformation:Construction,
  {5bd2189e-ff25-401b-bf97-f8d3a579d9bb}, !- Handle
  {e531fdc2-2836-4173-80d7-3fd9290a58bc}, !- Construction Name
  ExteriorRoof,                           !- Intended Surface Type
  Metal;                                  !- Standards Construction Type

OS:Material,
  {f6174f46-21e8-4952-9ceb-78e3885c415e}, !- Handle
  Roof Insulation [25],                   !- Name
  MediumRough,                            !- Roughness
  0.263,                                  !- Thickness {m}
  0.049,                                  !- Conductivity {W/m-K}
  265,                                    !- Density {kg/m3}
  836.800000000001,                       !- Specific Heat {J/kg-K}
  0.9,                                    !- Thermal Absorptance
  0.7,                                    !- Solar Absorptance
  0.7;                                    !- Visible Absorptance

OS:Construction,
  {993a551d-d02c-4754-b98a-4d1d1881c4c8}, !- Handle
  ASHRAE 189.1-2009 ExtRoof Metal ClimateZone 7-8, !- Name
  ,                                       !- Surface Rendering Name
  {bf3e4834-12aa-4fff-a46d-7af0481416c2}, !- Layer 1
  {b95479f7-229c-4d89-aef4-1c2ed26da9fe}, !- Layer 2
  {43cc8078-7300-4227-b7f8-42581819cef8}; !- Layer 3

OS:StandardsInformation:Construction,
  {05dad025-329f-49c5-a87a-ed70b54aa427}, !- Handle
  {993a551d-d02c-4754-b98a-4d1d1881c4c8}, !- Construction Name
  ExteriorRoof,                           !- Intended Surface Type
  Metal;                                  !- Standards Construction Type

OS:Material,
  {b95479f7-229c-4d89-aef4-1c2ed26da9fe}, !- Handle
  Roof Insulation [27],                   !- Name
  MediumRough,                            !- Roughness
  0.297000000000001,                      !- Thickness {m}
  0.049,                                  !- Conductivity {W/m-K}
  265,                                    !- Density {kg/m3}
  836.800000000001,                       !- Specific Heat {J/kg-K}
  0.9,                                    !- Thermal Absorptance
  0.7,                                    !- Solar Absorptance
  0.7;                                    !- Visible Absorptance

OS:Construction,
  {69abcbc4-03e4-4015-a8d5-6de60536796d}, !- Handle
  ASHRAE 189.1-2009 ExtWall Mass ClimateZone 1, !- Name
  ,                                       !- Surface Rendering Name
  {03393bd2-0cdf-4726-a0f4-83d09d648fcf}, !- Layer 1
  {d023dbd6-7a50-445c-9ae8-575a825b9555}, !- Layer 2
  {7016a2ee-008c-4dfe-8a5c-d525227e114c}, !- Layer 3
  {76b38bba-85b2-4e30-a923-d239312e6368}; !- Layer 4

OS:StandardsInformation:Construction,
  {4422cee5-332f-469e-acf2-62cbfa5f275e}, !- Handle
  {69abcbc4-03e4-4015-a8d5-6de60536796d}, !- Construction Name
  ExteriorWall,                           !- Intended Surface Type
  Mass;                                   !- Standards Construction Type

OS:Material,
  {03393bd2-0cdf-4726-a0f4-83d09d648fcf}, !- Handle
  1IN Stucco,                             !- Name
  Smooth,                                 !- Roughness
  0.0253,                                 !- Thickness {m}
  0.691799999999999,                      !- Conductivity {W/m-K}
  1858,                                   !- Density {kg/m3}
  836.999999999999,                       !- Specific Heat {J/kg-K}
  0.9,                                    !- Thermal Absorptance
  0.92,                                   !- Solar Absorptance
  0.92;                                   !- Visible Absorptance

OS:Material,
  {d023dbd6-7a50-445c-9ae8-575a825b9555}, !- Handle
  8IN Concrete HW,                        !- Name
  MediumRough,                            !- Roughness
  0.2033,                                 !- Thickness {m}
  1.72959999999999,                       !- Conductivity {W/m-K}
  2242.99999999999,                       !- Density {kg/m3}
  836.999999999999,                       !- Specific Heat {J/kg-K}
  0.9,                                    !- Thermal Absorptance
  0.65,                                   !- Solar Absorptance
  0.65;                                   !- Visible Absorptance

OS:Material,
  {7016a2ee-008c-4dfe-8a5c-d525227e114c}, !- Handle
  Wall Insulation [31],                   !- Name
  MediumRough,                            !- Roughness
  0.0337000000000001,                     !- Thickness {m}
  0.0432,                                 !- Conductivity {W/m-K}
  91,                                     !- Density {kg/m3}
  836.999999999999,                       !- Specific Heat {J/kg-K}
  0.9,                                    !- Thermal Absorptance
  0.5,                                    !- Solar Absorptance
  0.5;                                    !- Visible Absorptance

OS:Construction,
  {b2705ac5-567f-41dd-a3cf-cecee80f4a3d}, !- Handle
  ASHRAE 189.1-2009 ExtWall Mass ClimateZone 2, !- Name
  ,                                       !- Surface Rendering Name
  {03393bd2-0cdf-4726-a0f4-83d09d648fcf}, !- Layer 1
  {d023dbd6-7a50-445c-9ae8-575a825b9555}, !- Layer 2
  {47385914-190b-4171-b40f-dbd61072af06}, !- Layer 3
  {76b38bba-85b2-4e30-a923-d239312e6368}; !- Layer 4

OS:StandardsInformation:Construction,
  {34dda0d9-cc5e-4a5b-8f89-e5f44ebd5288}, !- Handle
  {b2705ac5-567f-41dd-a3cf-cecee80f4a3d}, !- Construction Name
  ExteriorWall,                           !- Intended Surface Type
  Mass;                                   !- Standards Construction Type

OS:Material,
  {47385914-190b-4171-b40f-dbd61072af06}, !- Handle
  Wall Insulation [35],                   !- Name
  MediumRough,                            !- Roughness
  0.0452,                                 !- Thickness {m}
  0.0432,                                 !- Conductivity {W/m-K}
  91,                                     !- Density {kg/m3}
  836.999999999999,                       !- Specific Heat {J/kg-K}
  0.9,                                    !- Thermal Absorptance
  0.5,                                    !- Solar Absorptance
  0.5;                                    !- Visible Absorptance

OS:Construction,
  {37d5eb6e-7d3d-4209-ab67-84d0680c5e28}, !- Handle
  ASHRAE 189.1-2009 ExtWall Mass ClimateZone 3, !- Name
  ,                                       !- Surface Rendering Name
  {03393bd2-0cdf-4726-a0f4-83d09d648fcf}, !- Layer 1
  {d023dbd6-7a50-445c-9ae8-575a825b9555}, !- Layer 2
  {6b337456-5466-4dd0-ac6c-9ef3f0db6d6b}, !- Layer 3
  {76b38bba-85b2-4e30-a923-d239312e6368}; !- Layer 4

OS:StandardsInformation:Construction,
  {afa3dfce-14ae-4f77-b73c-ebe917052082}, !- Handle
  {37d5eb6e-7d3d-4209-ab67-84d0680c5e28}, !- Construction Name
  ExteriorWall,                           !- Intended Surface Type
  Mass;                                   !- Standards Construction Type

OS:Material,
  {6b337456-5466-4dd0-ac6c-9ef3f0db6d6b}, !- Handle
  Wall Insulation [36],                   !- Name
  MediumRough,                            !- Roughness
  0.0565999999999999,                     !- Thickness {m}
  0.0432,                                 !- Conductivity {W/m-K}
  91,                                     !- Density {kg/m3}
  836.999999999999,                       !- Specific Heat {J/kg-K}
  0.9,                                    !- Thermal Absorptance
  0.5,                                    !- Solar Absorptance
  0.5;                                    !- Visible Absorptance

OS:Construction,
  {9295a9c4-a8a7-4b2c-aeb8-6250231d0091}, !- Handle
  ASHRAE 189.1-2009 ExtWall Mass ClimateZone 4, !- Name
  ,                                       !- Surface Rendering Name
  {03393bd2-0cdf-4726-a0f4-83d09d648fcf}, !- Layer 1
  {d023dbd6-7a50-445c-9ae8-575a825b9555}, !- Layer 2
  {ca1ce8ca-372d-4c6b-bff7-ea42b142a9e3}, !- Layer 3
  {76b38bba-85b2-4e30-a923-d239312e6368}; !- Layer 4

OS:StandardsInformation:Construction,
  {36f876d0-d6d1-4eff-9690-fb1b6c6d4c42}, !- Handle
  {9295a9c4-a8a7-4b2c-aeb8-6250231d0091}, !- Construction Name
  ExteriorWall,                           !- Intended Surface Type
  Mass;                                   !- Standards Construction Type

OS:Material,
  {ca1ce8ca-372d-4c6b-bff7-ea42b142a9e3}, !- Handle
  Wall Insulation [37],                   !- Name
  MediumRough,                            !- Roughness
  0.0680999999999999,                     !- Thickness {m}
  0.0432,                                 !- Conductivity {W/m-K}
  91,                                     !- Density {kg/m3}
  836.999999999999,                       !- Specific Heat {J/kg-K}
  0.9,                                    !- Thermal Absorptance
  0.5,                                    !- Solar Absorptance
  0.5;                                    !- Visible Absorptance

OS:Construction,
  {f112f84c-5340-4476-bec0-d923956a2e58}, !- Handle
  ASHRAE 189.1-2009 ExtWall Mass ClimateZone 5, !- Name
  ,                                       !- Surface Rendering Name
  {03393bd2-0cdf-4726-a0f4-83d09d648fcf}, !- Layer 1
  {d023dbd6-7a50-445c-9ae8-575a825b9555}, !- Layer 2
  {7fe40881-a38c-4857-afed-6801ce1fe440}, !- Layer 3
  {76b38bba-85b2-4e30-a923-d239312e6368}; !- Layer 4

OS:StandardsInformation:Construction,
  {10ead6e0-6429-44e2-860a-d8c83feac7af}, !- Handle
  {f112f84c-5340-4476-bec0-d923956a2e58}, !- Construction Name
  ExteriorWall,                           !- Intended Surface Type
  Mass;                                   !- Standards Construction Type

OS:Material,
  {7fe40881-a38c-4857-afed-6801ce1fe440}, !- Handle
  Wall Insulation [40],                   !- Name
  MediumRough,                            !- Roughness
  0.0793999999999999,                     !- Thickness {m}
  0.0432,                                 !- Conductivity {W/m-K}
  91,                                     !- Density {kg/m3}
  836.999999999999,                       !- Specific Heat {J/kg-K}
  0.9,                                    !- Thermal Absorptance
  0.5,                                    !- Solar Absorptance
  0.5;                                    !- Visible Absorptance

OS:Construction,
  {265e41e2-f405-43ed-81ee-dbe2dbe0a3d7}, !- Handle
  ASHRAE 189.1-2009 ExtWall Mass ClimateZone 6, !- Name
  ,                                       !- Surface Rendering Name
  {03393bd2-0cdf-4726-a0f4-83d09d648fcf}, !- Layer 1
  {d023dbd6-7a50-445c-9ae8-575a825b9555}, !- Layer 2
  {2ac11c93-e9f1-43d6-b76b-c9dc2516f514}, !- Layer 3
  {76b38bba-85b2-4e30-a923-d239312e6368}; !- Layer 4

OS:StandardsInformation:Construction,
  {cf4d68f4-1eec-4fa6-8316-a3be8d6303de}, !- Handle
  {265e41e2-f405-43ed-81ee-dbe2dbe0a3d7}, !- Construction Name
  ExteriorWall,                           !- Intended Surface Type
  Mass;                                   !- Standards Construction Type

OS:Material,
  {2ac11c93-e9f1-43d6-b76b-c9dc2516f514}, !- Handle
  Wall Insulation [42],                   !- Name
  MediumRough,                            !- Roughness
  0.0913999999999999,                     !- Thickness {m}
  0.0432,                                 !- Conductivity {W/m-K}
  91,                                     !- Density {kg/m3}
  836.999999999999,                       !- Specific Heat {J/kg-K}
  0.9,                                    !- Thermal Absorptance
  0.5,                                    !- Solar Absorptance
  0.5;                                    !- Visible Absorptance

OS:Construction,
  {1cb9829b-c743-4230-b0bc-38a7252f66f6}, !- Handle
  ASHRAE 189.1-2009 ExtWall Mass ClimateZone 7-8, !- Name
  ,                                       !- Surface Rendering Name
  {03393bd2-0cdf-4726-a0f4-83d09d648fcf}, !- Layer 1
  {d023dbd6-7a50-445c-9ae8-575a825b9555}, !- Layer 2
  {567f5d0a-edf9-4c31-a41d-37d053c0b5e5}, !- Layer 3
  {76b38bba-85b2-4e30-a923-d239312e6368}; !- Layer 4

OS:StandardsInformation:Construction,
  {c2747e3a-a7d5-4f4a-84f1-6cf4b5594d79}, !- Handle
  {1cb9829b-c743-4230-b0bc-38a7252f66f6}, !- Construction Name
  ExteriorWall,                           !- Intended Surface Type
  Mass;                                   !- Standards Construction Type

OS:Material,
  {567f5d0a-edf9-4c31-a41d-37d053c0b5e5}, !- Handle
  Wall Insulation [44],                   !- Name
  MediumRough,                            !- Roughness
  0.1104,                                 !- Thickness {m}
  0.0432,                                 !- Conductivity {W/m-K}
  91,                                     !- Density {kg/m3}
  836.999999999999,                       !- Specific Heat {J/kg-K}
  0.9,                                    !- Thermal Absorptance
  0.5,                                    !- Solar Absorptance
  0.5;                                    !- Visible Absorptance

OS:Construction,
  {4c02db82-382a-4e61-848c-2d214532779f}, !- Handle
  ASHRAE 189.1-2009 ExtWall Mass ClimateZone alt-res 1, !- Name
  ,                                       !- Surface Rendering Name
  {03393bd2-0cdf-4726-a0f4-83d09d648fcf}, !- Layer 1
  {d023dbd6-7a50-445c-9ae8-575a825b9555}, !- Layer 2
  {47385914-190b-4171-b40f-dbd61072af06}, !- Layer 3
  {76b38bba-85b2-4e30-a923-d239312e6368}; !- Layer 4

OS:StandardsInformation:Construction,
  {3fd9bf6e-fd7e-42a9-a6e5-4ef833962173}, !- Handle
  {4c02db82-382a-4e61-848c-2d214532779f}, !- Construction Name
  ExteriorWall,                           !- Intended Surface Type
  Mass;                                   !- Standards Construction Type

OS:Construction,
  {af978dff-6384-4bf4-81e3-ca59789b2c45}, !- Handle
  ASHRAE 189.1-2009 ExtWall Mass ClimateZone alt-res 2, !- Name
  ,                                       !- Surface Rendering Name
  {03393bd2-0cdf-4726-a0f4-83d09d648fcf}, !- Layer 1
  {d023dbd6-7a50-445c-9ae8-575a825b9555}, !- Layer 2
  {6b337456-5466-4dd0-ac6c-9ef3f0db6d6b}, !- Layer 3
  {76b38bba-85b2-4e30-a923-d239312e6368}; !- Layer 4

OS:StandardsInformation:Construction,
  {d3545ad9-1c0e-40c5-82be-ba589de9e981}, !- Handle
  {af978dff-6384-4bf4-81e3-ca59789b2c45}, !- Construction Name
  ExteriorWall,                           !- Intended Surface Type
  Mass;                                   !- Standards Construction Type

OS:Construction,
  {06ae60d1-ad8f-47a7-81d8-ebf66ff2131a}, !- Handle
  ASHRAE 189.1-2009 ExtWall Mass ClimateZone alt-res 3, !- Name
  ,                                       !- Surface Rendering Name
  {03393bd2-0cdf-4726-a0f4-83d09d648fcf}, !- Layer 1
  {d023dbd6-7a50-445c-9ae8-575a825b9555}, !- Layer 2
  {ca1ce8ca-372d-4c6b-bff7-ea42b142a9e3}, !- Layer 3
  {76b38bba-85b2-4e30-a923-d239312e6368}; !- Layer 4

OS:StandardsInformation:Construction,
  {82dc7d9e-f070-422f-a3ce-d3fe5e7781fc}, !- Handle
  {06ae60d1-ad8f-47a7-81d8-ebf66ff2131a}, !- Construction Name
  ExteriorWall,                           !- Intended Surface Type
  Mass;                                   !- Standards Construction Type

OS:Construction,
  {c149ae5b-6fdf-4c59-89cf-18cd3297a882}, !- Handle
  ASHRAE 189.1-2009 ExtWall Mass ClimateZone alt-res 4, !- Name
  ,                                       !- Surface Rendering Name
  {03393bd2-0cdf-4726-a0f4-83d09d648fcf}, !- Layer 1
  {d023dbd6-7a50-445c-9ae8-575a825b9555}, !- Layer 2
  {7fe40881-a38c-4857-afed-6801ce1fe440}, !- Layer 3
  {76b38bba-85b2-4e30-a923-d239312e6368}; !- Layer 4

OS:StandardsInformation:Construction,
  {6637e3a4-aae7-4c4d-8941-d9ab5caab9f8}, !- Handle
  {c149ae5b-6fdf-4c59-89cf-18cd3297a882}, !- Construction Name
  ExteriorWall,                           !- Intended Surface Type
  Mass;                                   !- Standards Construction Type

OS:Construction,
  {0267fb95-6d35-4d1d-9076-15008e292910}, !- Handle
  ASHRAE 189.1-2009 ExtWall Mass ClimateZone alt-res 5, !- Name
  ,                                       !- Surface Rendering Name
  {03393bd2-0cdf-4726-a0f4-83d09d648fcf}, !- Layer 1
  {d023dbd6-7a50-445c-9ae8-575a825b9555}, !- Layer 2
  {2ac11c93-e9f1-43d6-b76b-c9dc2516f514}, !- Layer 3
  {76b38bba-85b2-4e30-a923-d239312e6368}; !- Layer 4

OS:StandardsInformation:Construction,
  {c8ecba32-7bce-4ee2-afdc-b77c3c7efa8b}, !- Handle
  {0267fb95-6d35-4d1d-9076-15008e292910}, !- Construction Name
  ExteriorWall,                           !- Intended Surface Type
  Mass;                                   !- Standards Construction Type

OS:Construction,
  {dab23328-eeed-4f9b-94fd-ddaa576a83d8}, !- Handle
  ASHRAE 189.1-2009 ExtWall Mass ClimateZone alt-res 6, !- Name
  ,                                       !- Surface Rendering Name
  {03393bd2-0cdf-4726-a0f4-83d09d648fcf}, !- Layer 1
  {d023dbd6-7a50-445c-9ae8-575a825b9555}, !- Layer 2
  {567f5d0a-edf9-4c31-a41d-37d053c0b5e5}, !- Layer 3
  {76b38bba-85b2-4e30-a923-d239312e6368}; !- Layer 4

OS:StandardsInformation:Construction,
  {6a7a0895-7b3a-43ae-8071-bbd2ef81ae26}, !- Handle
  {dab23328-eeed-4f9b-94fd-ddaa576a83d8}, !- Construction Name
  ExteriorWall,                           !- Intended Surface Type
  Mass;                                   !- Standards Construction Type

OS:Construction,
  {12dfdcb5-9087-4bbf-8b31-64f4be67a88c}, !- Handle
  ASHRAE 189.1-2009 ExtWall Mass ClimateZone alt-res 7, !- Name
  ,                                       !- Surface Rendering Name
  {03393bd2-0cdf-4726-a0f4-83d09d648fcf}, !- Layer 1
  {d023dbd6-7a50-445c-9ae8-575a825b9555}, !- Layer 2
  {567f5d0a-edf9-4c31-a41d-37d053c0b5e5}, !- Layer 3
  {76b38bba-85b2-4e30-a923-d239312e6368}; !- Layer 4

OS:StandardsInformation:Construction,
  {16bb34dc-134a-438a-a316-0a603a13ba42}, !- Handle
  {12dfdcb5-9087-4bbf-8b31-64f4be67a88c}, !- Construction Name
  ExteriorWall,                           !- Intended Surface Type