
OS:Version,
  {9669c9b4-ee91-4c4e-98a1-f80e9c325252}, !- Handle
  1.4.0;                                  !- Version Identifier

OS:Construction,
  {44717451-006a-4871-a014-c5d3a0601184}, !- Handle
  ASHRAE 189.1-2009 AtticFloor ClimateZone 1-8, !- Name
  ,                                       !- Surface Rendering Name
  {795c9658-ba47-4eeb-a498-20c109bea765}, !- Layer 1
  {fa6d5b27-83ba-4dc5-b9ff-de494cfd55a0}, !- Layer 2
  {795c9658-ba47-4eeb-a498-20c109bea765}; !- Layer 3

OS:StandardsInformation:Construction,
  {2b0e562e-770e-4a4d-b06e-6a9cff174875}, !- Handle
  {44717451-006a-4871-a014-c5d3a0601184}, !- Construction Name
  AtticFloor,                             !- Intended Surface Type
  WoodFramed;                             !- Standards Construction Type

OS:Material,
  {795c9658-ba47-4eeb-a498-20c109bea765}, !- Handle
  1/2IN Gypsum,                           !- Name
  Smooth,                                 !- Roughness
  0.0127,                                 !- Thickness {m}
  0.16,                                   !- Conductivity {W/m-K}
  784.9,                                  !- Density {kg/m3}
  830.000000000001,                       !- Specific Heat {J/kg-K}
  0.9,                                    !- Thermal Absorptance
  0.4,                                    !- Solar Absorptance
  0.4;                                    !- Visible Absorptance

OS:Material,
  {fa6d5b27-83ba-4dc5-b9ff-de494cfd55a0}, !- Handle
  AtticFloor Insulation,                  !- Name
  MediumRough,                            !- Roughness
  0.2379,                                 !- Thickness {m}
  0.049,                                  !- Conductivity {W/m-K}
  265,                                    !- Density {kg/m3}
  836.800000000001,                       !- Specific Heat {J/kg-K}
  0.9,                                    !- Thermal Absorptance
  0.7,                                    !- Solar Absorptance
  0.7;                                    !- Visible Absorptance

OS:Construction,
  {a32ef244-c56c-44e1-8a70-5a365be4a56d}, !- Handle
  ASHRAE 189.1-2009 ExtRoof IEAD ClimateZone 1, !- Name
  ,                                       !- Surface Rendering Name
  {e29ca539-1a0a-4684-ba2f-8f6e3d98ca1e}, !- Layer 1
  {f76d8494-9853-4825-b9f4-69d50adc1c6f}, !- Layer 2
  {ae9e6340-b131-45ed-a27b-a100523b3e4f}; !- Layer 3

OS:StandardsInformation:Construction,
  {d90def4a-6dee-480a-bdca-1b1e650abcfc}, !- Handle
  {a32ef244-c56c-44e1-8a70-5a365be4a56d}, !- Construction Name
  ExteriorRoof,                           !- Intended Surface Type
  IEAD;                                   !- Standards Construction Type

OS:Material,
  {e29ca539-1a0a-4684-ba2f-8f6e3d98ca1e}, !- Handle
  Roof Membrane,                          !- Name
  VeryRough,                              !- Roughness
  0.0095,                                 !- Thickness {m}
  0.16,                                   !- Conductivity {W/m-K}
  1121.29,                                !- Density {kg/m3}
  1460,                                   !- Specific Heat {J/kg-K}
  0.9,                                    !- Thermal Absorptance
  0.7,                                    !- Solar Absorptance
  0.7;                                    !- Visible Absorptance

OS:Material,
  {f76d8494-9853-4825-b9f4-69d50adc1c6f}, !- Handle
  Roof Insulation [18],                   !- Name
  MediumRough,                            !- Roughness
  0.1693,                                 !- Thickness {m}
  0.049,                                  !- Conductivity {W/m-K}
  265,                                    !- Density {kg/m3}
  836.800000000001,                       !- Specific Heat {J/kg-K}
  0.9,                                    !- Thermal Absorptance
  0.7,                                    !- Solar Absorptance
  0.7;                                    !- Visible Absorptance

OS:Material,
  {ae9e6340-b131-45ed-a27b-a100523b3e4f}, !- Handle
  Metal Decking,                          !- Name
  MediumSmooth,                           !- Roughness
  0.0015,                                 !- Thickness {m}
  45.006,                                 !- Conductivity {W/m-K}
  7680,                                   !- Density {kg/m3}
  418.4,                                  !- Specific Heat {J/kg-K}
  0.9,                                    !- Thermal Absorptance
  0.6,                                    !- Solar Absorptance
  0.6;                                    !- Visible Absorptance

OS:Construction,
  {f584ed0d-d167-46a9-9517-fd54c66ead98}, !- Handle
  ASHRAE 189.1-2009 ExtRoof IEAD ClimateZone 2-5, !- Name
  ,                                       !- Surface Rendering Name
  {e29ca539-1a0a-4684-ba2f-8f6e3d98ca1e}, !- Layer 1
  {f7b7344f-69c7-49e2-9d53-bf367c5a7788}, !- Layer 2
  {ae9e6340-b131-45ed-a27b-a100523b3e4f}; !- Layer 3

OS:StandardsInformation:Construction,
  {b2cedf67-31fb-48cc-8e4f-1cdf00cfb886}, !- Handle
  {f584ed0d-d167-46a9-9517-fd54c66ead98}, !- Construction Name
  ExteriorRoof,                           !- Intended Surface Type
  IEAD;                                   !- Standards Construction Type

OS:Material,
  {f7b7344f-69c7-49e2-9d53-bf367c5a7788}, !- Handle
  Roof Insulation [21],                   !- Name
  MediumRough,                            !- Roughness
  0.2105,                                 !- Thickness {m}
  0.049,                                  !- Conductivity {W/m-K}
  265,                                    !- Density {kg/m3}
  836.800000000001,                       !- Specific Heat {J/kg-K}
  0.9,                                    !- Thermal Absorptance
  0.7,                                    !- Solar Absorptance
  0.7;                                    !- Visible Absorptance

OS:Construction,
  {17248e09-f69c-46a8-8e72-e4659b4d76d7}, !- Handle
  ASHRAE 189.1-2009 ExtRoof IEAD ClimateZone 6, !- Name
  ,                                       !- Surface Rendering Name
  {e29ca539-1a0a-4684-ba2f-8f6e3d98ca1e}, !- Layer 1
  {cb40f499-d3d4-4f31-b8fb-916e2ffd0f0f}, !- Layer 2
  {ae9e6340-b131-45ed-a27b-a100523b3e4f}; !- Layer 3

OS:StandardsInformation:Construction,
  {7d5c206d-5ea0-45a6-9f66-f4218264ba47}, !- Handle
  {17248e09-f69c-46a8-8e72-e4659b4d76d7}, !- Construction Name
  ExteriorRoof,                           !- Intended Surface Type
  IEAD;                                   !- Standards Construction Type

OS:Material,
  {cb40f499-d3d4-4f31-b8fb-916e2ffd0f0f}, !- Handle
  Roof Insulation [24],                   !- Name
  MediumRough,                            !- Roughness
  0.260100000000001,                      !- Thickness {m}
  0.049,                                  !- Conductivity {W/m-K}
  265,                                    !- Density {kg/m3}
  836.800000000001,                       !- Specific Heat {J/kg-K}
  0.9,                                    !- Thermal Absorptance
  0.7,                                    !- Solar Absorptance
  0.7;                                    !- Visible Absorptance

OS:Construction,
  {2930337f-b8c9-4c52-a813-351a87fd9aa8}, !- Handle
  ASHRAE 189.1-2009 ExtRoof IEAD ClimateZone 7-8, !- Name
  ,                                       !- Surface Rendering Name
  {e29ca539-1a0a-4684-ba2f-8f6e3d98ca1e}, !- Layer 1
  {cadcc7bb-d865-4caf-b14b-dc123db78249}, !- Layer 2
  {ae9e6340-b131-45ed-a27b-a100523b3e4f}; !- Layer 3

OS:StandardsInformation:Construction,
  {1e6823e3-74fa-4953-8d56-a851961a10d5}, !- Handle
  {2930337f-b8c9-4c52-a813-351a87fd9aa8}, !- Construction Name
  ExteriorRoof,                           !- Intended Surface Type
  IEAD;                                   !- Standards Construction Type

OS:Material,
  {cadcc7bb-d865-4caf-b14b-dc123db78249}, !- Handle
  Roof Insulation [26],                   !- Name
  MediumRough,                            !- Roughness
  0.2941,                                 !- Thickness {m}
  0.049,                                  !- Conductivity {W/m-K}
  265,                                    !- Density {kg/m3}
  836.800000000001,                       !- Specific Heat {J/kg-K}
  0.9,                                    !- Thermal Absorptance
  0.7,                                    !- Solar Absorptance
  0.7;                                    !- Visible Absorptance

OS:Construction,
  {7b396e81-ead5-4d36-aa3d-f50146709fa0}, !- Handle
  ASHRAE 189.1-2009 ExtRoof Metal ClimateZone 1, !- Name
  ,                                       !- Surface Rendering Name
  {4e063305-3156-442f-b729-ea438c769d06}, !- Layer 1
  {9c491209-217b-48fe-9595-c29d22ed55cf}, !- Layer 2
  {ae9e6340-b131-45ed-a27b-a100523b3e4f}; !- Layer 3

OS:StandardsInformation:Construction,
  {fde278c7-d428-4416-9798-ed6183d4906f}, !- Handle
  {7b396e81-ead5-4d36-aa3d-f50146709fa0}, !- Construction Name
  ExteriorRoof,                           !- Intended Surface Type
  Metal;                                  !- Standards Construction Type

OS:Material,
  {4e063305-3156-442f-b729-ea438c769d06}, !- Handle
  Metal Roofing,                          !- Name
  MediumSmooth,                           !- Roughness
  0.0015,                                 !- Thickness {m}
  45.006,                                 !- Conductivity {W/m-K}
  7680,                                   !- Density {kg/m3}
  418.4,                                  !- Specific Heat {J/kg-K}
  0.9,                                    !- Thermal Absorptance
  0.6,                                    !- Solar Absorptance
  0.6;                                    !- Visible Absorptance

OS:Material,
  {9c491209-217b-48fe-9595-c29d22ed55cf}, !- Handle
  Roof Insulation [19],                   !- Name
  MediumRough,                            !- Roughness
  0.1868,                                 !- Thickness {m}
  0.049,                                  !- Conductivity {W/m-K}
  265,                                    !- Density {kg/m3}
  836.800000000001,                       !- Specific Heat {J/kg-K}
  0.9,                                    !- Thermal Absorptance
  0.7,                                    !- Solar Absorptance
  0.7;                                    !- Visible Absorptance

OS:Construction,
  {79cbfb24-ee23-44b2-a8b7-5b4a3e940d54}, !- Handle
  ASHRAE 189.1-2009 ExtRoof Metal ClimateZone 2-5, !- Name
  ,                                       !- Surface Rendering Name
  {4e063305-3156-442f-b729-ea438c769d06}, !- Layer 1
  {2873c63a-82dd-401d-87f9-39a5bde1fff2}, !- Layer 2
  {ae9e6340-b131-45ed-a27b-a100523b3e4f}; !- Layer 3

OS:StandardsInformation:Construction,
  {be1cbc3b-1359-4580-b087-4301a58df0a0}, !- Handle
  {79cbfb24-ee23-44b2-a8b7-5b4a3e940d54}, !- Construction Name
  ExteriorRoof,                           !- Intended Surface Type
  Metal;                                  !- Standards Construction Type

OS:Material,
  {2873c63a-82dd-401d-87f9-39a5bde1fff2}, !- Handle
  Roof Insulation [22],                   !- Name
  MediumRough,                            !- Roughness
  0.2358,                                 !- Thickness {m}
  0.049,                                  !- Conductivity {W/m-K}
  265,                                    !- Density {kg/m3}
  836.800000000001,                       !- Specific Heat {J/kg-K}
  0.9,                                    !- Thermal Absorptance
  0.7,                                    !- Solar Absorptance
  0.7;                                    !- Visible Absorptance

OS:Construction,
  {047ec7c9-c237-4691-8446-654be8b0895d}, !- Handle
  ASHRAE 189.1-2009 ExtRoof Metal ClimateZone 6, !- Name
  ,                                       !- Surface Rendering Name
  {4e063305-3156-442f-b729-ea438c769d06}, !- Layer 1
  {daedf782-a30f-4b32-a74e-0e36946fa5cc}, !- Layer 2
  {ae9e6340-b131-45ed-a27b-a100523b3e4f}; !- Layer 3

OS:StandardsInformation:Construction,
  {5c4e64b9-e96f-4e71-a0a8-01bfd7095674}, !- Handle
  {047ec7c9-c237-4691-8446-654be8b0895d}, !- Construction Name
  ExteriorRoof,                           !- Intended Surface Type
  Metal;                                  !- Standards Construction Type

OS:Material,
  {daedf782-a30f-4b32-a74e-0e36946fa5cc}, !- Handle
  Roof Insulation [25],                   !- Name
  MediumRough,                            !- Roughness
  0.263,                                  !- Thickness {m}
  0.049,                                  !- Conductivity {W/m-K}
  265,                                    !- Density {kg/m3}
  836.800000000001,                       !- Specific Heat {J/kg-K}
  0.9,                                    !- Thermal Absorptance
  0.7,                                    !- Solar Absorptance
  0.7;                                    !- Visible Absorptance

OS:Construction,
  {ebc90c3f-e275-4fc1-9749-153912a4d3d2}, !- Handle
  ASHRAE 189.1-2009 ExtRoof Metal ClimateZone 7-8, !- Name
  ,                                       !- Surface Rendering Name
  {4e063305-3156-442f-b729-ea438c769d06}, !- Layer 1
  {3fa1e990-c29f-421a-88ce-25713435006a}, !- Layer 2
  {ae9e6340-b131-45ed-a27b-a100523b3e4f}; !- Layer 3

OS:StandardsInformation:Construction,
  {9b86ed7e-01a6-46c7-a374-8bebb98fd71d}, !- Handle
  {ebc90c3f-e275-4fc1-9749-153912a4d3d2}, !- Construction Name
  ExteriorRoof,                           !- Intended Surface Type
  Metal;                                  !- Standards Construction Type

OS:Material,
  {3fa1e990-c29f-421a-88ce-25713435006a}, !- Handle
  Roof Insulation [27],                   !- Name
  MediumRough,                            !- Roughness
  0.297000000000001,                      !- Thickness {m}
  0.049,                                  !- Conductivity {W/m-K}
  265,                                    !- Density {kg/m3}
  836.800000000001,                       !- Specific Heat {J/kg-K}
  0.9,                                    !- Thermal Absorptance
  0.7,                                    !- Solar Absorptance
  0.7;                                    !- Visible Absorptance

OS:Construction,
  {42cb26b1-d7f4-4c8a-8224-4a2470d3df1e}, !- Handle
  ASHRAE 189.1-2009 ExtWall Mass ClimateZone 1, !- Name
  ,                                       !- Surface Rendering Name
  {85a0571f-ce8e-4848-8b2b-8acff670d297}, !- Layer 1
  {36fbdcb9-f1b7-441d-bd95-5995911340eb}, !- Layer 2
  {c01543ae-6181-4e5e-83fb-f61cfe0e7d57}, !- Layer 3
  {795c9658-ba47-4eeb-a498-20c109bea765}; !- Layer 4

OS:StandardsInformation:Construction,
  {a687daf6-c408-47be-aab2-90f9e8d88568}, !- Handle
  {42cb26b1-d7f4-4c8a-8224-4a2470d3df1e}, !- Construction Name
  ExteriorWall,                           !- Intended Surface Type
  Mass;                                   !- Standards Construction Type

OS:Material,
  {85a0571f-ce8e-4848-8b2b-8acff670d297}, !- Handle
  1IN Stucco,                             !- Name
  Smooth,                                 !- Roughness
  0.0253,                                 !- Thickness {m}
  0.691799999999999,                      !- Conductivity {W/m-K}
  1858,                                   !- Density {kg/m3}
  836.999999999999,                       !- Specific Heat {J/kg-K}
  0.9,                                    !- Thermal Absorptance
  0.92,                                   !- Solar Absorptance
  0.92;                                   !- Visible Absorptance

OS:Material,
  {36fbdcb9-f1b7-441d-bd95-5995911340eb}, !- Handle
  8IN Concrete HW,                        !- Name
  MediumRough,                            !- Roughness
  0.2033,                                 !- Thickness {m}
  1.72959999999999,                       !- Conductivity {W/m-K}
  2242.99999999999,                       !- Density {kg/m3}
  836.999999999999,                       !- Specific Heat {J/kg-K}
  0.9,                                    !- Thermal Absorptance
  0.65,                                   !- Solar Absorptance
  0.65;                                   !- Visible Absorptance

OS:Material,
  {c01543ae-6181-4e5e-83fb-f61cfe0e7d57}, !- Handle
  Wall Insulation [31],                   !- Name
  MediumRough,                            !- Roughness
  0.0337000000000001,                     !- Thickness {m}
  0.0432,                                 !- Conductivity {W/m-K}
  91,                                     !- Density {kg/m3}
  836.999999999999,                       !- Specific Heat {J/kg-K}
  0.9,                                    !- Thermal Absorptance
  0.5,                                    !- Solar Absorptance
  0.5;                                    !- Visible Absorptance

OS:Construction,
  {5d203eb4-6f30-477b-96b3-a2d4bd158cdd}, !- Handle
  ASHRAE 189.1-2009 ExtWall Mass ClimateZone 2, !- Name
  ,                                       !- Surface Rendering Name
  {85a0571f-ce8e-4848-8b2b-8acff670d297}, !- Layer 1
  {36fbdcb9-f1b7-441d-bd95-5995911340eb}, !- Layer 2
  {790621a5-7128-42b7-8a63-5f1e12eaa7e1}, !- Layer 3
  {795c9658-ba47-4eeb-a498-20c109bea765}; !- Layer 4

OS:StandardsInformation:Construction,
  {ccf8fdd8-b8b1-470f-a7d2-87753d9e3a49}, !- Handle
  {5d203eb4-6f30-477b-96b3-a2d4bd158cdd}, !- Construction Name
  ExteriorWall,                           !- Intended Surface Type
  Mass;                                   !- Standards Construction Type

OS:Material,
  {790621a5-7128-42b7-8a63-5f1e12eaa7e1}, !- Handle
  Wall Insulation [35],                   !- Name
  MediumRough,                            !- Roughness
  0.0452,                                 !- Thickness {m}
  0.0432,                                 !- Conductivity {W/m-K}
  91,                                     !- Density {kg/m3}
  836.999999999999,                       !- Specific Heat {J/kg-K}
  0.9,                                    !- Thermal Absorptance
  0.5,                                    !- Solar Absorptance
  0.5;                                    !- Visible Absorptance

OS:Construction,
  {ee9ea5d8-c4ca-4357-97fa-f958676af049}, !- Handle
  ASHRAE 189.1-2009 ExtWall Mass ClimateZone 3, !- Name
  ,                                       !- Surface Rendering Name
  {85a0571f-ce8e-4848-8b2b-8acff670d297}, !- Layer 1
  {36fbdcb9-f1b7-441d-bd95-5995911340eb}, !- Layer 2
  {c582bf74-cad6-4aea-abb8-949406705721}, !- Layer 3
  {795c9658-ba47-4eeb-a498-20c109bea765}; !- Layer 4

OS:StandardsInformation:Construction,
  {f2fda853-72f9-4c7b-8dd7-35c8fc684ebd}, !- Handle
  {ee9ea5d8-c4ca-4357-97fa-f958676af049}, !- Construction Name
  ExteriorWall,                           !- Intended Surface Type
  Mass;                                   !- Standards Construction Type

OS:Material,
  {c582bf74-cad6-4aea-abb8-949406705721}, !- Handle
  Wall Insulation [36],                   !- Name
  MediumRough,                            !- Roughness
  0.0565999999999999,                     !- Thickness {m}
  0.0432,                                 !- Conductivity {W/m-K}
  91,                                     !- Density {kg/m3}
  836.999999999999,                       !- Specific Heat {J/kg-K}
  0.9,                                    !- Thermal Absorptance
  0.5,                                    !- Solar Absorptance
  0.5;                                    !- Visible Absorptance

OS:Construction,
  {7fb6e685-bc82-42e1-9810-e6a592b09e98}, !- Handle
  ASHRAE 189.1-2009 ExtWall Mass ClimateZone 4, !- Name
  ,                                       !- Surface Rendering Name
  {85a0571f-ce8e-4848-8b2b-8acff670d297}, !- Layer 1
  {36fbdcb9-f1b7-441d-bd95-5995911340eb}, !- Layer 2
  {1e96896a-18c4-4de6-a75a-3ea4a5852bd4}, !- Layer 3
  {795c9658-ba47-4eeb-a498-20c109bea765}; !- Layer 4

OS:StandardsInformation:Construction,
  {30ce5737-1a72-4d13-a2c3-b93123e6e3b4}, !- Handle
  {7fb6e685-bc82-42e1-9810-e6a592b09e98}, !- Construction Name
  ExteriorWall,                           !- Intended Surface Type
  Mass;                                   !- Standards Construction Type

OS:Material,
  {1e96896a-18c4-4de6-a75a-3ea4a5852bd4}, !- Handle
  Wall Insulation [37],                   !- Name
  MediumRough,                            !- Roughness
  0.0680999999999999,                     !- Thickness {m}
  0.0432,                                 !- Conductivity {W/m-K}
  91,                                     !- Density {kg/m3}
  836.999999999999,                       !- Specific Heat {J/kg-K}
  0.9,                                    !- Thermal Absorptance
  0.5,                                    !- Solar Absorptance
  0.5;                                    !- Visible Absorptance

OS:Construction,
  {08c5cd41-c1f8-4df6-9a0c-d913d27bb10a}, !- Handle
  ASHRAE 189.1-2009 ExtWall Mass ClimateZone 5, !- Name
  ,                                       !- Surface Rendering Name
  {85a0571f-ce8e-4848-8b2b-8acff670d297}, !- Layer 1
  {36fbdcb9-f1b7-441d-bd95-5995911340eb}, !- Layer 2
  {ceb15559-f745-45fe-b31f-15051f7255b8}, !- Layer 3
  {795c9658-ba47-4eeb-a498-20c109bea765}; !- Layer 4

OS:StandardsInformation:Construction,
  {0f2b4309-c2fc-401a-9172-9b357eddd207}, !- Handle
  {08c5cd41-c1f8-4df6-9a0c-d913d27bb10a}, !- Construction Name
  ExteriorWall,                           !- Intended Surface Type
  Mass;                                   !- Standards Construction Type

OS:Material,
  {ceb15559-f745-45fe-b31f-15051f7255b8}, !- Handle
  Wall Insulation [40],                   !- Name
  MediumRough,                            !- Roughness
  0.0793999999999999,                     !- Thickness {m}
  0.0432,                                 !- Conductivity {W/m-K}
  91,                                     !- Density {kg/m3}
  836.999999999999,                       !- Specific Heat {J/kg-K}
  0.9,                                    !- Thermal Absorptance
  0.5,                                    !- Solar Absorptance
  0.5;                                    !- Visible Absorptance

OS:Construction,
  {87723ef9-6636-46ee-a0e2-9f8ed1155752}, !- Handle
  ASHRAE 189.1-2009 ExtWall Mass ClimateZone 6, !- Name
  ,                                       !- Surface Rendering Name
  {85a0571f-ce8e-4848-8b2b-8acff670d297}, !- Layer 1
  {36fbdcb9-f1b7-441d-bd95-5995911340eb}, !- Layer 2
  {22e25615-aff4-4519-94c0-43266b3bb381}, !- Layer 3
  {795c9658-ba47-4eeb-a498-20c109bea765}; !- Layer 4

OS:StandardsInformation:Construction,
  {9c4634b6-79bd-4b22-8ba6-155d89ed2824}, !- Handle
  {87723ef9-6636-46ee-a0e2-9f8ed1155752}, !- Construction Name
  ExteriorWall,                           !- Intended Surface Type
  Mass;                                   !- Standards Construction Type

OS:Material,
  {22e25615-aff4-4519-94c0-43266b3bb381}, !- Handle
  Wall Insulation [42],                   !- Name
  MediumRough,                            !- Roughness
  0.0913999999999999,                     !- Thickness {m}
  0.0432,                                 !- Conductivity {W/m-K}
  91,                                     !- Density {kg/m3}
  836.999999999999,                       !- Specific Heat {J/kg-K}
  0.9,                                    !- Thermal Absorptance
  0.5,                                    !- Solar Absorptance
  0.5;                                    !- Visible Absorptance

OS:Construction,
  {d3274f29-e5ea-49ee-8b55-8efbc3db458f}, !- Handle
  ASHRAE 189.1-2009 ExtWall Mass ClimateZone 7-8, !- Name
  ,                                       !- Surface Rendering Name
  {85a0571f-ce8e-4848-8b2b-8acff670d297}, !- Layer 1
  {36fbdcb9-f1b7-441d-bd95-5995911340eb}, !- Layer 2
  {e925db5c-a01b-4c0d-8b63-e1c94a13d1c7}, !- Layer 3
  {795c9658-ba47-4eeb-a498-20c109bea765}; !- Layer 4

OS:StandardsInformation:Construction,
  {c44b3588-8d92-4e94-aea1-4f087c0f8da4}, !- Handle
  {d3274f29-e5ea-49ee-8b55-8efbc3db458f}, !- Construction Name
  ExteriorWall,                           !- Intended Surface Type
  Mass;                                   !- Standards Construction Type

OS:Material,
  {e925db5c-a01b-4c0d-8b63-e1c94a13d1c7}, !- Handle
  Wall Insulation [44],                   !- Name
  MediumRough,                            !- Roughness
  0.1104,                                 !- Thickness {m}
  0.0432,                                 !- Conductivity {W/m-K}
  91,                                     !- Density {kg/m3}
  836.999999999999,                       !- Specific Heat {J/kg-K}
  0.9,                                    !- Thermal Absorptance
  0.5,                                    !- Solar Absorptance
  0.5;                                    !- Visible Absorptance

OS:Construction,
  {95f0d8e1-0ea0-4733-bbb0-cd3e62096898}, !- Handle
  ASHRAE 189.1-2009 ExtWall Mass ClimateZone alt-res 1, !- Name
  ,                                       !- Surface Rendering Name
  {85a0571f-ce8e-4848-8b2b-8acff670d297}, !- Layer 1
  {36fbdcb9-f1b7-441d-bd95-5995911340eb}, !- Layer 2
  {790621a5-7128-42b7-8a63-5f1e12eaa7e1}, !- Layer 3
  {795c9658-ba47-4eeb-a498-20c109bea765}; !- Layer 4

OS:StandardsInformation:Construction,
  {4299967a-e241-479d-8482-6cfbbea2c5d7}, !- Handle
  {95f0d8e1-0ea0-4733-bbb0-cd3e62096898}, !- Construction Name
  ExteriorWall,                           !- Intended Surface Type
  Mass;                                   !- Standards Construction Type

OS:Construction,
  {0098d945-c072-4076-b79a-1eaaa9965828}, !- Handle
  ASHRAE 189.1-2009 ExtWall Mass ClimateZone alt-res 2, !- Name
  ,                                       !- Surface Rendering Name
  {85a0571f-ce8e-4848-8b2b-8acff670d297}, !- Layer 1
  {36fbdcb9-f1b7-441d-bd95-5995911340eb}, !- Layer 2
  {c582bf74-cad6-4aea-abb8-949406705721}, !- Layer 3
  {795c9658-ba47-4eeb-a498-20c109bea765}; !- Layer 4

OS:StandardsInformation:Construction,
  {decc7d8b-e7a2-454b-80d9-772cb0e9d729}, !- Handle
  {0098d945-c072-4076-b79a-1eaaa9965828}, !- Construction Name
  ExteriorWall,                           !- Intended Surface Type
  Mass;                                   !- Standards Construction Type

OS:Construction,
  {479cf2df-5b12-4f61-a14d-65d8302fafd9}, !- Handle
  ASHRAE 189.1-2009 ExtWall Mass ClimateZone alt-res 3, !- Name
  ,                                       !- Surface Rendering Name
  {85a0571f-ce8e-4848-8b2b-8acff670d297}, !- Layer 1
  {36fbdcb9-f1b7-441d-bd95-5995911340eb}, !- Layer 2
  {1e96896a-18c4-4de6-a75a-3ea4a5852bd4}, !- Layer 3
  {795c9658-ba47-4eeb-a498-20c109bea765}; !- Layer 4

OS:StandardsInformation:Construction,
  {e4814f56-6fb1-490e-ab52-20c43a5ea188}, !- Handle
  {479cf2df-5b12-4f61-a14d-65d8302fafd9}, !- Construction Name
  ExteriorWall,                           !- Intended Surface Type
  Mass;                                   !- Standards Construction Type

OS:Construction,
  {3f7d6a8d-77b2-42dd-b2de-a17772af9d0d}, !- Handle
  ASHRAE 189.1-2009 ExtWall Mass ClimateZone alt-res 4, !- Name
  ,                                       !- Surface Rendering Name
  {85a0571f-ce8e-4848-8b2b-8acff670d297}, !- Layer 1
  {36fbdcb9-f1b7-441d-bd95-5995911340eb}, !- Layer 2
  {ceb15559-f745-45fe-b31f-15051f7255b8}, !- Layer 3
  {795c9658-ba47-4eeb-a498-20c109bea765}; !- Layer 4

OS:StandardsInformation:Construction,
  {a13aa880-6183-43af-94cc-c3bf9fe346a6}, !- Handle
  {3f7d6a8d-77b2-42dd-b2de-a17772af9d0d}, !- Construction Name
  ExteriorWall,                           !- Intended Surface Type
  Mass;                                   !- Standards Construction Type

OS:Construction,
  {3a2bb4dd-29e0-4c55-8b01-7fe5b627979e}, !- Handle
  ASHRAE 189.1-2009 ExtWall Mass ClimateZone alt-res 5, !- Name
  ,                                       !- Surface Rendering Name
  {85a0571f-ce8e-4848-8b2b-8acff670d297}, !- Layer 1
  {36fbdcb9-f1b7-441d-bd95-5995911340eb}, !- Layer 2
  {22e25615-aff4-4519-94c0-43266b3bb381}, !- Layer 3
  {795c9658-ba47-4eeb-a498-20c109bea765}; !- Layer 4

OS:StandardsInformation:Construction,
  {d43d8dab-4c33-4597-909b-981baa899009}, !- Handle
  {3a2bb4dd-29e0-4c55-8b01-7fe5b627979e}, !- Construction Name
  ExteriorWall,                           !- Intended Surface Type
  Mass;                                   !- Standards Construction Type

OS:Construction,
  {941d37e0-f410-4b63-bb08-31dfc4641f92}, !- Handle
  ASHRAE 189.1-2009 ExtWall Mass ClimateZone alt-res 6, !- Name
  ,                                       !- Surface Rendering Name
  {85a0571f-ce8e-4848-8b2b-8acff670d297}, !- Layer 1
  {36fbdcb9-f1b7-441d-bd95-5995911340eb}, !- Layer 2
  {e925db5c-a01b-4c0d-8b63-e1c94a13d1c7}, !- Layer 3
  {795c9658-ba47-4eeb-a498-20c109bea765}; !- Layer 4

OS:StandardsInformation:Construction,
  {dd1b02df-38b0-43c8-b48a-2eae480d65c5}, !- Handle
  {941d37e0-f410-4b63-bb08-31dfc4641f92}, !- Construction Name
  ExteriorWall,                           !- Intended Surface Type
  Mass;                                   !- Standards Construction Type

OS:Construction,
  {2ef4af09-9023-4190-87dc-aefb977b64d7}, !- Handle
  ASHRAE 189.1-2009 ExtWall Mass ClimateZone alt-res 7, !- Name
  ,                                       !- Surface Rendering Name
  {85a0571f-ce8e-4848-8b2b-8acff670d297}, !- Layer 1
  {36fbdcb9-f1b7-441d-bd95-5995911340eb}, !- Layer 2
  {e925db5c-a01b-4c0d-8b63-e1c94a13d1c7}, !- Layer 3
  {795c9658-ba47-4eeb-a498-20c109bea765}; !- Layer 4

OS:StandardsInformation:Construction,
  {e28f5a2e-b718-4160-8252-c5da822e81bb}, !- Handle
  {2ef4af09-9023-4190-87dc-aefb977b64d7}, !- Construction Name
  ExteriorWall,                           !- Intended Surface Type