
OS:Version,
  {d9356e7b-241c-4c18-904a-f948b9bfb5de}, !- Handle
  1.3.3;                                  !- Version Identifier

OS:Construction,
  {a5e72bd6-e4de-4e7c-9e86-0f844fec8907}, !- Handle
  ASHRAE 189.1-2009 AtticFloor ClimateZone 1-8, !- Name
  ,                                       !- Surface Rendering Name
  {3a5a0455-beac-4319-ab9c-129708040c30}, !- Layer 1
  {ce24caf3-647d-4f67-a34c-a4ce027cb724}, !- Layer 2
  {3a5a0455-beac-4319-ab9c-129708040c30}; !- Layer 3

OS:StandardsInformation:Construction,
  {01552ff2-215b-40f0-8a9d-e41ce3829c6d}, !- Handle
  {a5e72bd6-e4de-4e7c-9e86-0f844fec8907}, !- Construction Name
  AtticFloor,                             !- Intended Surface Type
  WoodFramed;                             !- Standards Construction Type

OS:Material,
  {3a5a0455-beac-4319-ab9c-129708040c30}, !- Handle
  1/2IN Gypsum,                           !- Name
  Smooth,                                 !- Roughness
  0.0127,                                 !- Thickness {m}
  0.16,                                   !- Conductivity {W/m-K}
  784.9,                                  !- Density {kg/m3}
  830.000000000001,                       !- Specific Heat {J/kg-K}
  0.9,                                    !- Thermal Absorptance
  0.92,                                   !- Solar Absorptance
  0.92;                                   !- Visible Absorptance

OS:Material,
  {ce24caf3-647d-4f67-a34c-a4ce027cb724}, !- Handle
  AtticFloor Insulation,                  !- Name
  MediumRough,                            !- Roughness
  0.2379,                                 !- Thickness {m}
  0.049,                                  !- Conductivity {W/m-K}
  265,                                    !- Density {kg/m3}
  836.800000000001,                       !- Specific Heat {J/kg-K}
  0.9,                                    !- Thermal Absorptance
  0.7,                                    !- Solar Absorptance
  0.7;                                    !- Visible Absorptance

OS:Construction,
  {1cc1415d-9de9-4b20-b7e5-8e52bfbed145}, !- Handle
  ASHRAE 189.1-2009 ExtRoof IEAD ClimateZone 1, !- Name
  ,                                       !- Surface Rendering Name
  {ae7a9003-72bc-488b-b6ce-2407ced32460}, !- Layer 1
  {84ca2686-f9b6-42a8-827c-f76814613e31}, !- Layer 2
  {21d66b8a-4f3e-454d-a935-086610316308}; !- Layer 3

OS:StandardsInformation:Construction,
  {931d185c-84ce-4850-8639-fcb9df7bb04c}, !- Handle
  {1cc1415d-9de9-4b20-b7e5-8e52bfbed145}, !- Construction Name
  ExteriorRoof,                           !- Intended Surface Type
  IEAD;                                   !- Standards Construction Type

OS:Material,
  {ae7a9003-72bc-488b-b6ce-2407ced32460}, !- Handle
  Roof Membrane,                          !- Name
  VeryRough,                              !- Roughness
  0.0095,                                 !- Thickness {m}
  0.16,                                   !- Conductivity {W/m-K}
  1121.29,                                !- Density {kg/m3}
  1460,                                   !- Specific Heat {J/kg-K}
  0.9,                                    !- Thermal Absorptance
  0.7,                                    !- Solar Absorptance
  0.7;                                    !- Visible Absorptance

OS:Material,
  {84ca2686-f9b6-42a8-827c-f76814613e31}, !- Handle
  Roof Insulation [18],                   !- Name
  MediumRough,                            !- Roughness
  0.1693,                                 !- Thickness {m}
  0.049,                                  !- Conductivity {W/m-K}
  265,                                    !- Density {kg/m3}
  836.800000000001,                       !- Specific Heat {J/kg-K}
  0.9,                                    !- Thermal Absorptance
  0.7,                                    !- Solar Absorptance
  0.7;                                    !- Visible Absorptance

OS:Material,
  {21d66b8a-4f3e-454d-a935-086610316308}, !- Handle
  Metal Decking,                          !- Name
  MediumSmooth,                           !- Roughness
  0.0015,                                 !- Thickness {m}
  45.006,                                 !- Conductivity {W/m-K}
  7680,                                   !- Density {kg/m3}
  418.4,                                  !- Specific Heat {J/kg-K}
  0.9,                                    !- Thermal Absorptance
  0.7,                                    !- Solar Absorptance
  0.3;                                    !- Visible Absorptance

OS:Construction,
  {d2293b7a-6e39-4482-92c0-8e5755c2f0c1}, !- Handle
  ASHRAE 189.1-2009 ExtRoof IEAD ClimateZone 2-5, !- Name
  ,                                       !- Surface Rendering Name
  {ae7a9003-72bc-488b-b6ce-2407ced32460}, !- Layer 1
  {c784010a-9cd9-471f-95b7-0bc6dedf286a}, !- Layer 2
  {21d66b8a-4f3e-454d-a935-086610316308}; !- Layer 3

OS:StandardsInformation:Construction,
  {a946c825-7651-49e7-857a-3c2be73694b8}, !- Handle
  {d2293b7a-6e39-4482-92c0-8e5755c2f0c1}, !- Construction Name
  ExteriorRoof,                           !- Intended Surface Type
  IEAD;                                   !- Standards Construction Type

OS:Material,
  {c784010a-9cd9-471f-95b7-0bc6dedf286a}, !- Handle
  Roof Insulation [21],                   !- Name
  MediumRough,                            !- Roughness
  0.2105,                                 !- Thickness {m}
  0.049,                                  !- Conductivity {W/m-K}
  265,                                    !- Density {kg/m3}
  836.800000000001,                       !- Specific Heat {J/kg-K}
  0.9,                                    !- Thermal Absorptance
  0.7,                                    !- Solar Absorptance
  0.7;                                    !- Visible Absorptance

OS:Construction,
  {464bada1-798b-4e29-96b0-1c2266456514}, !- Handle
  ASHRAE 189.1-2009 ExtRoof IEAD ClimateZone 6, !- Name
  ,                                       !- Surface Rendering Name
  {ae7a9003-72bc-488b-b6ce-2407ced32460}, !- Layer 1
  {796f7d3c-fe17-4076-909f-e292db743441}, !- Layer 2
  {21d66b8a-4f3e-454d-a935-086610316308}; !- Layer 3

OS:StandardsInformation:Construction,
  {5a4b4636-d8a0-4fb4-8741-131d0d585785}, !- Handle
  {464bada1-798b-4e29-96b0-1c2266456514}, !- Construction Name
  ExteriorRoof,                           !- Intended Surface Type
  IEAD;                                   !- Standards Construction Type

OS:Material,
  {796f7d3c-fe17-4076-909f-e292db743441}, !- Handle
  Roof Insulation [24],                   !- Name
  MediumRough,                            !- Roughness
  0.260100000000001,                      !- Thickness {m}
  0.049,                                  !- Conductivity {W/m-K}
  265,                                    !- Density {kg/m3}
  836.800000000001,                       !- Specific Heat {J/kg-K}
  0.9,                                    !- Thermal Absorptance
  0.7,                                    !- Solar Absorptance
  0.7;                                    !- Visible Absorptance

OS:Construction,
  {20c611b8-0d2c-4aa2-a496-804d6f17dffc}, !- Handle
  ASHRAE 189.1-2009 ExtRoof IEAD ClimateZone 7-8, !- Name
  ,                                       !- Surface Rendering Name
  {ae7a9003-72bc-488b-b6ce-2407ced32460}, !- Layer 1
  {12f8fab0-1ef3-4541-b94b-2d06e9dc5900}, !- Layer 2
  {21d66b8a-4f3e-454d-a935-086610316308}; !- Layer 3

OS:StandardsInformation:Construction,
  {fad21487-2b2e-4050-8461-14a187c1011a}, !- Handle
  {20c611b8-0d2c-4aa2-a496-804d6f17dffc}, !- Construction Name
  ExteriorRoof,                           !- Intended Surface Type
  IEAD;                                   !- Standards Construction Type

OS:Material,
  {12f8fab0-1ef3-4541-b94b-2d06e9dc5900}, !- Handle
  Roof Insulation [26],                   !- Name
  MediumRough,                            !- Roughness
  0.2941,                                 !- Thickness {m}
  0.049,                                  !- Conductivity {W/m-K}
  265,                                    !- Density {kg/m3}
  836.800000000001,                       !- Specific Heat {J/kg-K}
  0.9,                                    !- Thermal Absorptance
  0.7,                                    !- Solar Absorptance
  0.7;                                    !- Visible Absorptance

OS:Construction,
  {7f2503f7-152f-4d5d-a969-66b85aff17a3}, !- Handle
  ASHRAE 189.1-2009 ExtRoof Metal ClimateZone 1, !- Name
  ,                                       !- Surface Rendering Name
  {a7a0841b-312e-4f46-94b7-250ce0072773}, !- Layer 1
  {f623a350-5081-41b6-8724-516aca7b1e93}; !- Layer 2

OS:StandardsInformation:Construction,
  {e30b24a5-96fd-4d7f-a981-2bd1b4d67742}, !- Handle
  {7f2503f7-152f-4d5d-a969-66b85aff17a3}, !- Construction Name
  ExteriorRoof,                           !- Intended Surface Type
  Metal;                                  !- Standards Construction Type

OS:Material,
  {a7a0841b-312e-4f46-94b7-250ce0072773}, !- Handle
  Metal Roofing,                          !- Name
  MediumSmooth,                           !- Roughness
  0.0015,                                 !- Thickness {m}
  45.006,                                 !- Conductivity {W/m-K}
  7680,                                   !- Density {kg/m3}
  418.4,                                  !- Specific Heat {J/kg-K}
  0.9,                                    !- Thermal Absorptance
  0.3,                                    !- Solar Absorptance
  0.3;                                    !- Visible Absorptance

OS:Material,
  {f623a350-5081-41b6-8724-516aca7b1e93}, !- Handle
  Roof Insulation [19],                   !- Name
  MediumRough,                            !- Roughness
  0.1868,                                 !- Thickness {m}
  0.049,                                  !- Conductivity {W/m-K}
  265,                                    !- Density {kg/m3}
  836.800000000001,                       !- Specific Heat {J/kg-K}
  0.9,                                    !- Thermal Absorptance
  0.7,                                    !- Solar Absorptance
  0.7;                                    !- Visible Absorptance

OS:Construction,
  {e4bb6bd0-95d5-443d-9afc-99cb0e81040b}, !- Handle
  ASHRAE 189.1-2009 ExtRoof Metal ClimateZone 2-5, !- Name
  ,                                       !- Surface Rendering Name
  {a7a0841b-312e-4f46-94b7-250ce0072773}, !- Layer 1
  {2b354fce-4d7b-488d-9f89-d30f55777557}; !- Layer 2

OS:StandardsInformation:Construction,
  {442fc3f7-0a74-4c85-9614-122d320996ae}, !- Handle
  {e4bb6bd0-95d5-443d-9afc-99cb0e81040b}, !- Construction Name
  ExteriorRoof,                           !- Intended Surface Type
  Metal;                                  !- Standards Construction Type

OS:Material,
  {2b354fce-4d7b-488d-9f89-d30f55777557}, !- Handle
  Roof Insulation [22],                   !- Name
  MediumRough,                            !- Roughness
  0.2358,                                 !- Thickness {m}
  0.049,                                  !- Conductivity {W/m-K}
  265,                                    !- Density {kg/m3}
  836.800000000001,                       !- Specific Heat {J/kg-K}
  0.9,                                    !- Thermal Absorptance
  0.7,                                    !- Solar Absorptance
  0.7;                                    !- Visible Absorptance

OS:Construction,
  {deeea8a0-5d94-4bd1-9b6b-47e6b229862c}, !- Handle
  ASHRAE 189.1-2009 ExtRoof Metal ClimateZone 6, !- Name
  ,                                       !- Surface Rendering Name
  {a7a0841b-312e-4f46-94b7-250ce0072773}, !- Layer 1
  {c8b1e9df-e0ff-41a1-b28d-2f3a80f91fd9}; !- Layer 2

OS:StandardsInformation:Construction,
  {451d645a-3c25-4bda-9152-32ad5501b6e6}, !- Handle
  {deeea8a0-5d94-4bd1-9b6b-47e6b229862c}, !- Construction Name
  ExteriorRoof,                           !- Intended Surface Type
  Metal;                                  !- Standards Construction Type

OS:Material,
  {c8b1e9df-e0ff-41a1-b28d-2f3a80f91fd9}, !- Handle
  Roof Insulation [25],                   !- Name
  MediumRough,                            !- Roughness
  0.263,                                  !- Thickness {m}
  0.049,                                  !- Conductivity {W/m-K}
  265,                                    !- Density {kg/m3}
  836.800000000001,                       !- Specific Heat {J/kg-K}
  0.9,                                    !- Thermal Absorptance
  0.7,                                    !- Solar Absorptance
  0.7;                                    !- Visible Absorptance

OS:Construction,
  {a1cbf651-fb29-49d6-954a-d8175989e0b7}, !- Handle
  ASHRAE 189.1-2009 ExtRoof Metal ClimateZone 7-8, !- Name
  ,                                       !- Surface Rendering Name
  {a7a0841b-312e-4f46-94b7-250ce0072773}, !- Layer 1
  {df77716f-4f65-4597-861b-75e6e73ba00b}; !- Layer 2

OS:StandardsInformation:Construction,
  {7f3e16cd-0727-4e1e-8a07-6e1ea5afaf80}, !- Handle
  {a1cbf651-fb29-49d6-954a-d8175989e0b7}, !- Construction Name
  ExteriorRoof,                           !- Intended Surface Type
  Metal;                                  !- Standards Construction Type

OS:Material,
  {df77716f-4f65-4597-861b-75e6e73ba00b}, !- Handle
  Roof Insulation [27],                   !- Name
  MediumRough,                            !- Roughness
  0.297000000000001,                      !- Thickness {m}
  0.049,                                  !- Conductivity {W/m-K}
  265,                                    !- Density {kg/m3}
  836.800000000001,                       !- Specific Heat {J/kg-K}
  0.9,                                    !- Thermal Absorptance
  0.7,                                    !- Solar Absorptance
  0.7;                                    !- Visible Absorptance

OS:Construction,
  {7c6c3afc-bdbf-42f7-bf7f-eacbcc363cad}, !- Handle
  ASHRAE 189.1-2009 ExtWall Mass ClimateZone 1, !- Name
  ,                                       !- Surface Rendering Name
  {4fbad068-2b6c-45be-8ec9-bd89c570346a}, !- Layer 1
  {763eebef-1829-4651-884b-805d858cc63b}, !- Layer 2
  {467c9cf1-eea8-4538-9a76-b904ec9edf70}, !- Layer 3
  {3a5a0455-beac-4319-ab9c-129708040c30}; !- Layer 4

OS:StandardsInformation:Construction,
  {eb6ccb5a-4c91-491f-9088-f8179cd31f4c}, !- Handle
  {7c6c3afc-bdbf-42f7-bf7f-eacbcc363cad}, !- Construction Name
  ExteriorWall,                           !- Intended Surface Type
  Mass;                                   !- Standards Construction Type

OS:Material,
  {4fbad068-2b6c-45be-8ec9-bd89c570346a}, !- Handle
  1IN Stucco,                             !- Name
  Smooth,                                 !- Roughness
  0.0253,                                 !- Thickness {m}
  0.691799999999999,                      !- Conductivity {W/m-K}
  1858,                                   !- Density {kg/m3}
  836.999999999999,                       !- Specific Heat {J/kg-K}
  0.9,                                    !- Thermal Absorptance
  0.92,                                   !- Solar Absorptance
  0.92;                                   !- Visible Absorptance

OS:Material,
  {763eebef-1829-4651-884b-805d858cc63b}, !- Handle
  8IN Concrete HW,                        !- Name
  MediumRough,                            !- Roughness
  0.2033,                                 !- Thickness {m}
  1.72959999999999,                       !- Conductivity {W/m-K}
  2242.99999999999,                       !- Density {kg/m3}
  836.999999999999,                       !- Specific Heat {J/kg-K}
  0.9,                                    !- Thermal Absorptance
  0.65,                                   !- Solar Absorptance
  0.65;                                   !- Visible Absorptance

OS:Material,
  {467c9cf1-eea8-4538-9a76-b904ec9edf70}, !- Handle
  Wall Insulation [31],                   !- Name
  MediumRough,                            !- Roughness
  0.0337000000000001,                     !- Thickness {m}
  0.0432,                                 !- Conductivity {W/m-K}
  91,                                     !- Density {kg/m3}
  836.999999999999,                       !- Specific Heat {J/kg-K}
  0.9,                                    !- Thermal Absorptance
  0.5,                                    !- Solar Absorptance
  0.5;                                    !- Visible Absorptance

OS:Construction,
  {49723225-e039-4af0-b6d9-568e8c0a0d40}, !- Handle
  ASHRAE 189.1-2009 ExtWall Mass ClimateZone 2, !- Name
  ,                                       !- Surface Rendering Name
  {4fbad068-2b6c-45be-8ec9-bd89c570346a}, !- Layer 1
  {763eebef-1829-4651-884b-805d858cc63b}, !- Layer 2
  {1b4efe0e-50a8-4805-b5dc-617bfb395d93}, !- Layer 3
  {3a5a0455-beac-4319-ab9c-129708040c30}; !- Layer 4

OS:StandardsInformation:Construction,
  {44e9d59f-dc62-4f04-b617-30e9980229e8}, !- Handle
  {49723225-e039-4af0-b6d9-568e8c0a0d40}, !- Construction Name
  ExteriorWall,                           !- Intended Surface Type
  Mass;                                   !- Standards Construction Type

OS:Material,
  {1b4efe0e-50a8-4805-b5dc-617bfb395d93}, !- Handle
  Wall Insulation [35],                   !- Name
  MediumRough,                            !- Roughness
  0.0452,                                 !- Thickness {m}
  0.0432,                                 !- Conductivity {W/m-K}
  91,                                     !- Density {kg/m3}
  836.999999999999,                       !- Specific Heat {J/kg-K}
  0.9,                                    !- Thermal Absorptance
  0.5,                                    !- Solar Absorptance
  0.5;                                    !- Visible Absorptance

OS:Construction,
  {46ae6621-b327-4f68-bd47-28e23907cdb2}, !- Handle
  ASHRAE 189.1-2009 ExtWall Mass ClimateZone 3, !- Name
  ,                                       !- Surface Rendering Name
  {4fbad068-2b6c-45be-8ec9-bd89c570346a}, !- Layer 1
  {763eebef-1829-4651-884b-805d858cc63b}, !- Layer 2
  {34a9a6a4-3634-4a8d-b024-c27d41b3a868}, !- Layer 3
  {3a5a0455-beac-4319-ab9c-129708040c30}; !- Layer 4

OS:StandardsInformation:Construction,
  {f7102201-f7c1-46b1-b153-72fa7749fc11}, !- Handle
  {46ae6621-b327-4f68-bd47-28e23907cdb2}, !- Construction Name
  ExteriorWall,                           !- Intended Surface Type
  Mass;                                   !- Standards Construction Type

OS:Material,
  {34a9a6a4-3634-4a8d-b024-c27d41b3a868}, !- Handle
  Wall Insulation [36],                   !- Name
  MediumRough,                            !- Roughness
  0.0565999999999999,                     !- Thickness {m}
  0.0432,                                 !- Conductivity {W/m-K}
  91,                                     !- Density {kg/m3}
  836.999999999999,                       !- Specific Heat {J/kg-K}
  0.9,                                    !- Thermal Absorptance
  0.5,                                    !- Solar Absorptance
  0.5;                                    !- Visible Absorptance

OS:Construction,
  {085038d6-b55a-4ce9-a428-c078138a0b73}, !- Handle
  ASHRAE 189.1-2009 ExtWall Mass ClimateZone 4, !- Name
  ,                                       !- Surface Rendering Name
  {4fbad068-2b6c-45be-8ec9-bd89c570346a}, !- Layer 1
  {763eebef-1829-4651-884b-805d858cc63b}, !- Layer 2
  {a08bba58-8c4f-40cf-80da-38616a97e2f1}, !- Layer 3
  {3a5a0455-beac-4319-ab9c-129708040c30}; !- Layer 4

OS:StandardsInformation:Construction,
  {c86feece-a065-489d-9720-ee81248b9801}, !- Handle
  {085038d6-b55a-4ce9-a428-c078138a0b73}, !- Construction Name
  ExteriorWall,                           !- Intended Surface Type
  Mass;                                   !- Standards Construction Type

OS:Material,
  {a08bba58-8c4f-40cf-80da-38616a97e2f1}, !- Handle
  Wall Insulation [37],                   !- Name
  MediumRough,                            !- Roughness
  0.0680999999999999,                     !- Thickness {m}
  0.0432,                                 !- Conductivity {W/m-K}
  91,                                     !- Density {kg/m3}
  836.999999999999,                       !- Specific Heat {J/kg-K}
  0.9,                                    !- Thermal Absorptance
  0.5,                                    !- Solar Absorptance
  0.5;                                    !- Visible Absorptance

OS:Construction,
  {0f0c784e-7cd0-4186-81ad-968465047d13}, !- Handle
  ASHRAE 189.1-2009 ExtWall Mass ClimateZone 5, !- Name
  ,                                       !- Surface Rendering Name
  {4fbad068-2b6c-45be-8ec9-bd89c570346a}, !- Layer 1
  {763eebef-1829-4651-884b-805d858cc63b}, !- Layer 2
  {5d3864d9-58bc-4ec2-966c-bb1055851da0}, !- Layer 3
  {3a5a0455-beac-4319-ab9c-129708040c30}; !- Layer 4

OS:StandardsInformation:Construction,
  {0dbf0ed9-29a5-481d-848d-21795155e87f}, !- Handle
  {0f0c784e-7cd0-4186-81ad-968465047d13}, !- Construction Name
  ExteriorWall,                           !- Intended Surface Type
  Mass;                                   !- Standards Construction Type

OS:Material,
  {5d3864d9-58bc-4ec2-966c-bb1055851da0}, !- Handle
  Wall Insulation [40],                   !- Name
  MediumRough,                            !- Roughness
  0.0793999999999999,                     !- Thickness {m}
  0.0432,                                 !- Conductivity {W/m-K}
  91,                                     !- Density {kg/m3}
  836.999999999999,                       !- Specific Heat {J/kg-K}
  0.9,                                    !- Thermal Absorptance
  0.5,                                    !- Solar Absorptance
  0.5;                                    !- Visible Absorptance

OS:Construction,
  {737c1079-e1dc-425c-b990-73d8882b6812}, !- Handle
  ASHRAE 189.1-2009 ExtWall Mass ClimateZone 6, !- Name
  ,                                       !- Surface Rendering Name
  {4fbad068-2b6c-45be-8ec9-bd89c570346a}, !- Layer 1
  {763eebef-1829-4651-884b-805d858cc63b}, !- Layer 2
  {d167bf88-441a-4304-9513-db5fac110c61}, !- Layer 3
  {3a5a0455-beac-4319-ab9c-129708040c30}; !- Layer 4

OS:StandardsInformation:Construction,
  {91286957-aba8-4ac8-936c-68be3317f3f8}, !- Handle
  {737c1079-e1dc-425c-b990-73d8882b6812}, !- Construction Name
  ExteriorWall,                           !- Intended Surface Type
  Mass;                                   !- Standards Construction Type

OS:Material,
  {d167bf88-441a-4304-9513-db5fac110c61}, !- Handle
  Wall Insulation [42],                   !- Name
  MediumRough,                            !- Roughness
  0.0913999999999999,                     !- Thickness {m}
  0.0432,                                 !- Conductivity {W/m-K}
  91,                                     !- Density {kg/m3}
  836.999999999999,                       !- Specific Heat {J/kg-K}
  0.9,                                    !- Thermal Absorptance
  0.5,                                    !- Solar Absorptance
  0.5;                                    !- Visible Absorptance

OS:Construction,
  {971da058-76a1-4848-b155-e3b877134ad7}, !- Handle
  ASHRAE 189.1-2009 ExtWall Mass ClimateZone 7-8, !- Name
  ,                                       !- Surface Rendering Name
  {4fbad068-2b6c-45be-8ec9-bd89c570346a}, !- Layer 1
  {763eebef-1829-4651-884b-805d858cc63b}, !- Layer 2
  {7a89985f-467c-41d3-8da2-709b60b045a5}, !- Layer 3
  {3a5a0455-beac-4319-ab9c-129708040c30}; !- Layer 4

OS:StandardsInformation:Construction,
  {ddfd9e10-fc55-4a52-8222-ceb3cbbfe67f}, !- Handle
  {971da058-76a1-4848-b155-e3b877134ad7}, !- Construction Name
  ExteriorWall,                           !- Intended Surface Type
  Mass;                                   !- Standards Construction Type

OS:Material,
  {7a89985f-467c-41d3-8da2-709b60b045a5}, !- Handle
  Wall Insulation [44],                   !- Name
  MediumRough,                            !- Roughness
  0.1104,                                 !- Thickness {m}
  0.0432,                                 !- Conductivity {W/m-K}
  91,                                     !- Density {kg/m3}
  836.999999999999,                       !- Specific Heat {J/kg-K}
  0.9,                                    !- Thermal Absorptance
  0.5,                                    !- Solar Absorptance
  0.5;                                    !- Visible Absorptance

OS:Construction,
  {5b4e06f7-6d2a-421a-817a-2e43168cb91c}, !- Handle
  ASHRAE 189.1-2009 ExtWall Mass ClimateZone alt-res 1, !- Name
  ,                                       !- Surface Rendering Name
  {4fbad068-2b6c-45be-8ec9-bd89c570346a}, !- Layer 1
  {763eebef-1829-4651-884b-805d858cc63b}, !- Layer 2
  {1b4efe0e-50a8-4805-b5dc-617bfb395d93}, !- Layer 3
  {3a5a0455-beac-4319-ab9c-129708040c30}; !- Layer 4

OS:StandardsInformation:Construction,
  {e2722cda-e465-430c-8c79-ff1c7c28651b}, !- Handle
  {5b4e06f7-6d2a-421a-817a-2e43168cb91c}, !- Construction Name
  ExteriorWall,                           !- Intended Surface Type
  Mass;                                   !- Standards Construction Type

OS:Construction,
  {9c19411e-8b9c-4ecb-ba30-befe47d785b1}, !- Handle
  ASHRAE 189.1-2009 ExtWall Mass ClimateZone alt-res 2, !- Name
  ,                                       !- Surface Rendering Name
  {4fbad068-2b6c-45be-8ec9-bd89c570346a}, !- Layer 1
  {763eebef-1829-4651-884b-805d858cc63b}, !- Layer 2
  {34a9a6a4-3634-4a8d-b024-c27d41b3a868}, !- Layer 3
  {3a5a0455-beac-4319-ab9c-129708040c30}; !- Layer 4

OS:StandardsInformation:Construction,
  {471a3696-6245-431b-b0ed-1eef1f79797e}, !- Handle
  {9c19411e-8b9c-4ecb-ba30-befe47d785b1}, !- Construction Name
  ExteriorWall,                           !- Intended Surface Type
  Mass;                                   !- Standards Construction Type

OS:Construction,
  {caf2953a-f06a-49fa-83d4-a7a1a5456ea3}, !- Handle
  ASHRAE 189.1-2009 ExtWall Mass ClimateZone alt-res 3, !- Name
  ,                                       !- Surface Rendering Name
  {4fbad068-2b6c-45be-8ec9-bd89c570346a}, !- Layer 1
  {763eebef-1829-4651-884b-805d858cc63b}, !- Layer 2
  {a08bba58-8c4f-40cf-80da-38616a97e2f1}, !- Layer 3
  {3a5a0455-beac-4319-ab9c-129708040c30}; !- Layer 4

OS:StandardsInformation:Construction,
  {a0f04d3f-ec92-4654-8476-065e627c9312}, !- Handle
  {caf2953a-f06a-49fa-83d4-a7a1a5456ea3}, !- Construction Name
  ExteriorWall,                           !- Intended Surface Type
  Mass;                                   !- Standards Construction Type

OS:Construction,
  {46f69291-42b1-41be-ace0-7714537414b3}, !- Handle
  ASHRAE 189.1-2009 ExtWall Mass ClimateZone alt-res 4, !- Name
  ,                                       !- Surface Rendering Name
  {4fbad068-2b6c-45be-8ec9-bd89c570346a}, !- Layer 1
  {763eebef-1829-4651-884b-805d858cc63b}, !- Layer 2
  {5d3864d9-58bc-4ec2-966c-bb1055851da0}, !- Layer 3
  {3a5a0455-beac-4319-ab9c-129708040c30}; !- Layer 4

OS:StandardsInformation:Construction,
  {bda3bb5f-4190-41a6-9fe0-deb055c5e58e}, !- Handle
  {46f69291-42b1-41be-ace0-7714537414b3}, !- Construction Name
  ExteriorWall,                           !- Intended Surface Type
  Mass;                                   !- Standards Construction Type

OS:Construction,
  {6c8eb351-9f66-4f19-9914-8a965287fb83}, !- Handle
  ASHRAE 189.1-2009 ExtWall Mass ClimateZone alt-res 5, !- Name
  ,                                       !- Surface Rendering Name
  {4fbad068-2b6c-45be-8ec9-bd89c570346a}, !- Layer 1
  {763eebef-1829-4651-884b-805d858cc63b}, !- Layer 2
  {d167bf88-441a-4304-9513-db5fac110c61}, !- Layer 3
  {3a5a0455-beac-4319-ab9c-129708040c30}; !- Layer 4

OS:StandardsInformation:Construction,
  {ab337f03-9ea2-44b5-b8f3-67968e21a4c0}, !- Handle
  {6c8eb351-9f66-4f19-9914-8a965287fb83}, !- Construction Name
  ExteriorWall,                           !- Intended Surface Type
  Mass;                                   !- Standards Construction Type

OS:Construction,
  {a4cf8f57-932b-4c78-b832-ae5c099cecc4}, !- Handle
  ASHRAE 189.1-2009 ExtWall Mass ClimateZone alt-res 6, !- Name
  ,                                       !- Surface Rendering Name
  {4fbad068-2b6c-45be-8ec9-bd89c570346a}, !- Layer 1
  {763eebef-1829-4651-884b-805d858cc63b}, !- Layer 2
  {7a89985f-467c-41d3-8da2-709b60b045a5}, !- Layer 3
  {3a5a0455-beac-4319-ab9c-129708040c30}; !- Layer 4

OS:StandardsInformation:Construction,
  {e9ba592b-4057-45b9-b9a7-48ded26ba759}, !- Handle
  {a4cf8f57-932b-4c78-b832-ae5c099cecc4}, !- Construction Name
  ExteriorWall,                           !- Intended Surface Type
  Mass;                                   !- Standards Construction Type

OS:Construction,
  {fbee0540-2026-472c-9b17-840de97700ce}, !- Handle
  ASHRAE 189.1-2009 ExtWall Mass ClimateZone alt-res 7, !- Name
  ,                                       !- Surface Rendering Name
  {4fbad068-2b6c-45be-8ec9-bd89c570346a}, !- Layer 1
  {763eebef-1829-4651-884b-805d858cc63b}, !- Layer 2
  {7a89985f-467c-41d3-8da2-709b60b045a5}, !- Layer 3
  {3a5a0455-beac-4319-ab9c-129708040c30}; !- Layer 4

OS:StandardsInformation:Construction,
  {8f0de14e-faeb-49f9-80ea-c0c2988dbada}, !- Handle
  {fbee0540-2026-472c-9b17-840de97700ce}, !- Construction Name
  ExteriorWall,                           !- Intended Surface Type
  Mass;                                   !- Standards Construction Type

OS:Construction,
  {f6da3678-2a4d-447e-a532-d2290273a80d}, !- Handle
  ASHRAE 189.1-2009 ExtWall Mass ClimateZone alt-res 8, !- Name