
OS:Version,
  {7af5979e-c217-4112-a466-ad583a89b347}, !- Handle
  1.2.3;                                  !- Version Identifier

OS:Construction,
  {6f48f31b-9906-4a9a-92ba-bdab0a1305eb}, !- Handle
  ASHRAE 189.1-2009 AtticFloor ClimateZone 1-8, !- Name
  ,                                       !- Surface Rendering Name
  {da5aa169-7e70-49ee-bb9d-ce25e0654a63}, !- Layer 1
  {bbf6a6f4-6031-47a9-9602-19e5cfd92af3}, !- Layer 2
  {da5aa169-7e70-49ee-bb9d-ce25e0654a63}; !- Layer 3

OS:StandardsInformation:Construction,
  {31333c9f-4d15-41f7-a9ae-bc3bbfacede6}, !- Handle
  {6f48f31b-9906-4a9a-92ba-bdab0a1305eb}, !- Construction Name
  AtticFloor,                             !- Intended Surface Type
  WoodFramed;                             !- Standards Construction Type

OS:Material,
  {da5aa169-7e70-49ee-bb9d-ce25e0654a63}, !- Handle
  1/2IN Gypsum,                           !- Name
  Smooth,                                 !- Roughness
  0.0127,                                 !- Thickness {m}
  0.16,                                   !- Conductivity {W/m-K}
  784.9,                                  !- Density {kg/m3}
  830.000000000001,                       !- Specific Heat {J/kg-K}
  0.9,                                    !- Thermal Absorptance
  0.92,                                   !- Solar Absorptance
  0.92;                                   !- Visible Absorptance

OS:Material,
  {bbf6a6f4-6031-47a9-9602-19e5cfd92af3}, !- Handle
  AtticFloor Insulation,                  !- Name
  MediumRough,                            !- Roughness
  0.2379,                                 !- Thickness {m}
  0.049,                                  !- Conductivity {W/m-K}
  265,                                    !- Density {kg/m3}
  836.800000000001,                       !- Specific Heat {J/kg-K}
  0.9,                                    !- Thermal Absorptance
  0.7,                                    !- Solar Absorptance
  0.7;                                    !- Visible Absorptance

OS:Construction,
  {b0cad0be-79d2-4604-b334-fac29c738063}, !- Handle
  ASHRAE 189.1-2009 ExtRoof IEAD ClimateZone 1, !- Name
  ,                                       !- Surface Rendering Name
  {125673b6-ee35-4fe9-a7e9-4ac74b8760eb}, !- Layer 1
  {2f7092c3-b198-4596-ac05-a56f640d6e23}, !- Layer 2
  {1e920b20-c836-4c71-bb97-11bdbe3fc869}; !- Layer 3

OS:StandardsInformation:Construction,
  {28892317-17dc-4a9b-bc07-3a621089caae}, !- Handle
  {b0cad0be-79d2-4604-b334-fac29c738063}, !- Construction Name
  ExteriorRoof,                           !- Intended Surface Type
  IEAD;                                   !- Standards Construction Type

OS:Material,
  {125673b6-ee35-4fe9-a7e9-4ac74b8760eb}, !- Handle
  Roof Membrane,                          !- Name
  VeryRough,                              !- Roughness
  0.0095,                                 !- Thickness {m}
  0.16,                                   !- Conductivity {W/m-K}
  1121.29,                                !- Density {kg/m3}
  1460,                                   !- Specific Heat {J/kg-K}
  0.9,                                    !- Thermal Absorptance
  0.7,                                    !- Solar Absorptance
  0.7;                                    !- Visible Absorptance

OS:Material,
  {2f7092c3-b198-4596-ac05-a56f640d6e23}, !- Handle
  Roof Insulation [18],                   !- Name
  MediumRough,                            !- Roughness
  0.1693,                                 !- Thickness {m}
  0.049,                                  !- Conductivity {W/m-K}
  265,                                    !- Density {kg/m3}
  836.800000000001,                       !- Specific Heat {J/kg-K}
  0.9,                                    !- Thermal Absorptance
  0.7,                                    !- Solar Absorptance
  0.7;                                    !- Visible Absorptance

OS:Material,
  {1e920b20-c836-4c71-bb97-11bdbe3fc869}, !- Handle
  Metal Decking,                          !- Name
  MediumSmooth,                           !- Roughness
  0.0015,                                 !- Thickness {m}
  45.006,                                 !- Conductivity {W/m-K}
  7680,                                   !- Density {kg/m3}
  418.4,                                  !- Specific Heat {J/kg-K}
  0.9,                                    !- Thermal Absorptance
  0.7,                                    !- Solar Absorptance
  0.3;                                    !- Visible Absorptance

OS:Construction,
  {e08cf45f-3d36-4859-a2e3-7cdb4792c055}, !- Handle
  ASHRAE 189.1-2009 ExtRoof IEAD ClimateZone 2-5, !- Name
  ,                                       !- Surface Rendering Name
  {125673b6-ee35-4fe9-a7e9-4ac74b8760eb}, !- Layer 1
  {42dcbffc-1525-4ff6-b6cb-df338ea6a1fe}, !- Layer 2
  {1e920b20-c836-4c71-bb97-11bdbe3fc869}; !- Layer 3

OS:StandardsInformation:Construction,
  {f9f86174-a4b5-44e3-a6ee-8333fa10f78f}, !- Handle
  {e08cf45f-3d36-4859-a2e3-7cdb4792c055}, !- Construction Name
  ExteriorRoof,                           !- Intended Surface Type
  IEAD;                                   !- Standards Construction Type

OS:Material,
  {42dcbffc-1525-4ff6-b6cb-df338ea6a1fe}, !- Handle
  Roof Insulation [21],                   !- Name
  MediumRough,                            !- Roughness
  0.2105,                                 !- Thickness {m}
  0.049,                                  !- Conductivity {W/m-K}
  265,                                    !- Density {kg/m3}
  836.800000000001,                       !- Specific Heat {J/kg-K}
  0.9,                                    !- Thermal Absorptance
  0.7,                                    !- Solar Absorptance
  0.7;                                    !- Visible Absorptance

OS:Construction,
  {f9e6d6c3-ffad-4559-9c89-001ee8ebfaf9}, !- Handle
  ASHRAE 189.1-2009 ExtRoof IEAD ClimateZone 6, !- Name
  ,                                       !- Surface Rendering Name
  {125673b6-ee35-4fe9-a7e9-4ac74b8760eb}, !- Layer 1
  {9b4c1269-6955-41e2-afcb-5a7fa52072d0}, !- Layer 2
  {1e920b20-c836-4c71-bb97-11bdbe3fc869}; !- Layer 3

OS:StandardsInformation:Construction,
  {05e096a0-5fa1-4e87-80ef-2525f8b19e15}, !- Handle
  {f9e6d6c3-ffad-4559-9c89-001ee8ebfaf9}, !- Construction Name
  ExteriorRoof,                           !- Intended Surface Type
  IEAD;                                   !- Standards Construction Type

OS:Material,
  {9b4c1269-6955-41e2-afcb-5a7fa52072d0}, !- Handle
  Roof Insulation [24],                   !- Name
  MediumRough,                            !- Roughness
  0.260100000000001,                      !- Thickness {m}
  0.049,                                  !- Conductivity {W/m-K}
  265,                                    !- Density {kg/m3}
  836.800000000001,                       !- Specific Heat {J/kg-K}
  0.9,                                    !- Thermal Absorptance
  0.7,                                    !- Solar Absorptance
  0.7;                                    !- Visible Absorptance

OS:Construction,
  {9dfcd451-f5ad-4746-8bbd-21d0aed35084}, !- Handle
  ASHRAE 189.1-2009 ExtRoof IEAD ClimateZone 7-8, !- Name
  ,                                       !- Surface Rendering Name
  {125673b6-ee35-4fe9-a7e9-4ac74b8760eb}, !- Layer 1
  {81c90ecd-d9ed-44c4-8f5c-1d5256d7b078}, !- Layer 2
  {1e920b20-c836-4c71-bb97-11bdbe3fc869}; !- Layer 3

OS:StandardsInformation:Construction,
  {40fdca12-186a-428b-b57f-2ac8fd809e8d}, !- Handle
  {9dfcd451-f5ad-4746-8bbd-21d0aed35084}, !- Construction Name
  ExteriorRoof,                           !- Intended Surface Type
  IEAD;                                   !- Standards Construction Type

OS:Material,
  {81c90ecd-d9ed-44c4-8f5c-1d5256d7b078}, !- Handle
  Roof Insulation [26],                   !- Name
  MediumRough,                            !- Roughness
  0.2941,                                 !- Thickness {m}
  0.049,                                  !- Conductivity {W/m-K}
  265,                                    !- Density {kg/m3}
  836.800000000001,                       !- Specific Heat {J/kg-K}
  0.9,                                    !- Thermal Absorptance
  0.7,                                    !- Solar Absorptance
  0.7;                                    !- Visible Absorptance

OS:Construction,
  {bd74d21f-7812-4212-9843-d1ffd7202f99}, !- Handle
  ASHRAE 189.1-2009 ExtRoof Metal ClimateZone 1, !- Name
  ,                                       !- Surface Rendering Name
  {5df8a81e-4af9-4b8f-878a-19f96df62dac}, !- Layer 1
  {237ca1ff-205b-4519-b0de-c0119774562c}; !- Layer 2

OS:StandardsInformation:Construction,
  {91ce0e54-1e62-44b4-8701-2901d78a5fb1}, !- Handle
  {bd74d21f-7812-4212-9843-d1ffd7202f99}, !- Construction Name
  ExteriorRoof,                           !- Intended Surface Type
  Metal;                                  !- Standards Construction Type

OS:Material,
  {5df8a81e-4af9-4b8f-878a-19f96df62dac}, !- Handle
  Metal Roofing,                          !- Name
  MediumSmooth,                           !- Roughness
  0.0015,                                 !- Thickness {m}
  45.006,                                 !- Conductivity {W/m-K}
  7680,                                   !- Density {kg/m3}
  418.4,                                  !- Specific Heat {J/kg-K}
  0.9,                                    !- Thermal Absorptance
  0.3,                                    !- Solar Absorptance
  0.3;                                    !- Visible Absorptance

OS:Material,
  {237ca1ff-205b-4519-b0de-c0119774562c}, !- Handle
  Roof Insulation [19],                   !- Name
  MediumRough,                            !- Roughness
  0.1868,                                 !- Thickness {m}
  0.049,                                  !- Conductivity {W/m-K}
  265,                                    !- Density {kg/m3}
  836.800000000001,                       !- Specific Heat {J/kg-K}
  0.9,                                    !- Thermal Absorptance
  0.7,                                    !- Solar Absorptance
  0.7;                                    !- Visible Absorptance

OS:Construction,
  {749c670f-5730-4346-b79f-45684c61b4e6}, !- Handle
  ASHRAE 189.1-2009 ExtRoof Metal ClimateZone 2-5, !- Name
  ,                                       !- Surface Rendering Name
  {5df8a81e-4af9-4b8f-878a-19f96df62dac}, !- Layer 1
  {5acd7805-ddbf-4931-98ae-176308e20fe5}; !- Layer 2

OS:StandardsInformation:Construction,
  {2d80573b-dc1b-4c43-a831-2fec7dbacfd0}, !- Handle
  {749c670f-5730-4346-b79f-45684c61b4e6}, !- Construction Name
  ExteriorRoof,                           !- Intended Surface Type
  Metal;                                  !- Standards Construction Type

OS:Material,
  {5acd7805-ddbf-4931-98ae-176308e20fe5}, !- Handle
  Roof Insulation [22],                   !- Name
  MediumRough,                            !- Roughness
  0.2358,                                 !- Thickness {m}
  0.049,                                  !- Conductivity {W/m-K}
  265,                                    !- Density {kg/m3}
  836.800000000001,                       !- Specific Heat {J/kg-K}
  0.9,                                    !- Thermal Absorptance
  0.7,                                    !- Solar Absorptance
  0.7;                                    !- Visible Absorptance

OS:Construction,
  {b42bc458-71d4-4db4-b4e4-b9612cb9d524}, !- Handle
  ASHRAE 189.1-2009 ExtRoof Metal ClimateZone 6, !- Name
  ,                                       !- Surface Rendering Name
  {5df8a81e-4af9-4b8f-878a-19f96df62dac}, !- Layer 1
  {e9ca4e21-15f2-4ec0-90f4-85e2ce64364c}; !- Layer 2

OS:StandardsInformation:Construction,
  {aba78435-d16a-4da1-b373-10057ad7665c}, !- Handle
  {b42bc458-71d4-4db4-b4e4-b9612cb9d524}, !- Construction Name
  ExteriorRoof,                           !- Intended Surface Type
  Metal;                                  !- Standards Construction Type

OS:Material,
  {e9ca4e21-15f2-4ec0-90f4-85e2ce64364c}, !- Handle
  Roof Insulation [25],                   !- Name
  MediumRough,                            !- Roughness
  0.263,                                  !- Thickness {m}
  0.049,                                  !- Conductivity {W/m-K}
  265,                                    !- Density {kg/m3}
  836.800000000001,                       !- Specific Heat {J/kg-K}
  0.9,                                    !- Thermal Absorptance
  0.7,                                    !- Solar Absorptance
  0.7;                                    !- Visible Absorptance

OS:Construction,
  {9783ef76-484a-4afc-95a4-a0b651e1f9b7}, !- Handle
  ASHRAE 189.1-2009 ExtRoof Metal ClimateZone 7-8, !- Name
  ,                                       !- Surface Rendering Name
  {5df8a81e-4af9-4b8f-878a-19f96df62dac}, !- Layer 1
  {006c03a7-770d-4d9a-aec4-56f96aeb6bb7}; !- Layer 2

OS:StandardsInformation:Construction,
  {fe8f0f08-a7b6-4879-9cd0-63063250eee4}, !- Handle
  {9783ef76-484a-4afc-95a4-a0b651e1f9b7}, !- Construction Name
  ExteriorRoof,                           !- Intended Surface Type
  Metal;                                  !- Standards Construction Type

OS:Material,
  {006c03a7-770d-4d9a-aec4-56f96aeb6bb7}, !- Handle
  Roof Insulation [27],                   !- Name
  MediumRough,                            !- Roughness
  0.297000000000001,                      !- Thickness {m}
  0.049,                                  !- Conductivity {W/m-K}
  265,                                    !- Density {kg/m3}
  836.800000000001,                       !- Specific Heat {J/kg-K}
  0.9,                                    !- Thermal Absorptance
  0.7,                                    !- Solar Absorptance
  0.7;                                    !- Visible Absorptance

OS:Construction,
  {0f5d10d7-c7d4-4334-9e10-f21e198e5b0f}, !- Handle
  ASHRAE 189.1-2009 ExtWall Mass ClimateZone 1, !- Name
  ,                                       !- Surface Rendering Name
  {77a72d8a-b862-43fc-adbc-91c3973a4e23}, !- Layer 1
  {ecca9368-8e39-44d5-9e52-3a836ff4f31e}, !- Layer 2
  {20e72b7c-0ede-422e-ac71-4dc90487e717}, !- Layer 3
  {da5aa169-7e70-49ee-bb9d-ce25e0654a63}; !- Layer 4

OS:StandardsInformation:Construction,
  {66c5a5a0-13b4-4f85-a754-57a475135f0a}, !- Handle
  {0f5d10d7-c7d4-4334-9e10-f21e198e5b0f}, !- Construction Name
  ExteriorWall,                           !- Intended Surface Type
  Mass;                                   !- Standards Construction Type

OS:Material,
  {77a72d8a-b862-43fc-adbc-91c3973a4e23}, !- Handle
  1IN Stucco,                             !- Name
  Smooth,                                 !- Roughness
  0.0253,                                 !- Thickness {m}
  0.691799999999999,                      !- Conductivity {W/m-K}
  1858,                                   !- Density {kg/m3}
  836.999999999999,                       !- Specific Heat {J/kg-K}
  0.9,                                    !- Thermal Absorptance
  0.92,                                   !- Solar Absorptance
  0.92;                                   !- Visible Absorptance

OS:Material,
  {ecca9368-8e39-44d5-9e52-3a836ff4f31e}, !- Handle
  8IN Concrete HW,                        !- Name
  MediumRough,                            !- Roughness
  0.2033,                                 !- Thickness {m}
  1.72959999999999,                       !- Conductivity {W/m-K}
  2242.99999999999,                       !- Density {kg/m3}
  836.999999999999,                       !- Specific Heat {J/kg-K}
  0.9,                                    !- Thermal Absorptance
  0.65,                                   !- Solar Absorptance
  0.65;                                   !- Visible Absorptance

OS:Material,
  {20e72b7c-0ede-422e-ac71-4dc90487e717}, !- Handle
  Wall Insulation [31],                   !- Name
  MediumRough,                            !- Roughness
  0.0337000000000001,                     !- Thickness {m}
  0.0432,                                 !- Conductivity {W/m-K}
  91,                                     !- Density {kg/m3}
  836.999999999999,                       !- Specific Heat {J/kg-K}
  0.9,                                    !- Thermal Absorptance
  0.5,                                    !- Solar Absorptance
  0.5;                                    !- Visible Absorptance

OS:Construction,
  {0a6454c1-e57c-4339-b1fb-4f48ad64a7cf}, !- Handle
  ASHRAE 189.1-2009 ExtWall Mass ClimateZone 2, !- Name
  ,                                       !- Surface Rendering Name
  {77a72d8a-b862-43fc-adbc-91c3973a4e23}, !- Layer 1
  {ecca9368-8e39-44d5-9e52-3a836ff4f31e}, !- Layer 2
  {ffa80a99-78d7-4d84-b5b3-3356dd455fdb}, !- Layer 3
  {da5aa169-7e70-49ee-bb9d-ce25e0654a63}; !- Layer 4

OS:StandardsInformation:Construction,
  {475b623c-8f5a-481a-aa54-35102e3b19f6}, !- Handle
  {0a6454c1-e57c-4339-b1fb-4f48ad64a7cf}, !- Construction Name
  ExteriorWall,                           !- Intended Surface Type
  Mass;                                   !- Standards Construction Type

OS:Material,
  {ffa80a99-78d7-4d84-b5b3-3356dd455fdb}, !- Handle
  Wall Insulation [35],                   !- Name
  MediumRough,                            !- Roughness
  0.0452,                                 !- Thickness {m}
  0.0432,                                 !- Conductivity {W/m-K}
  91,                                     !- Density {kg/m3}
  836.999999999999,                       !- Specific Heat {J/kg-K}
  0.9,                                    !- Thermal Absorptance
  0.5,                                    !- Solar Absorptance
  0.5;                                    !- Visible Absorptance

OS:Construction,
  {fefb2b02-285e-44c3-b9f7-b22312517dad}, !- Handle
  ASHRAE 189.1-2009 ExtWall Mass ClimateZone 3, !- Name
  ,                                       !- Surface Rendering Name
  {77a72d8a-b862-43fc-adbc-91c3973a4e23}, !- Layer 1
  {ecca9368-8e39-44d5-9e52-3a836ff4f31e}, !- Layer 2
  {aa174c0a-e314-4950-a4ac-ca72d849c5f8}, !- Layer 3
  {da5aa169-7e70-49ee-bb9d-ce25e0654a63}; !- Layer 4

OS:StandardsInformation:Construction,
  {f1fd3d8b-5f7b-403d-9db8-2cdcff38fa3b}, !- Handle
  {fefb2b02-285e-44c3-b9f7-b22312517dad}, !- Construction Name
  ExteriorWall,                           !- Intended Surface Type
  Mass;                                   !- Standards Construction Type

OS:Material,
  {aa174c0a-e314-4950-a4ac-ca72d849c5f8}, !- Handle
  Wall Insulation [36],                   !- Name
  MediumRough,                            !- Roughness
  0.0565999999999999,                     !- Thickness {m}
  0.0432,                                 !- Conductivity {W/m-K}
  91,                                     !- Density {kg/m3}
  836.999999999999,                       !- Specific Heat {J/kg-K}
  0.9,                                    !- Thermal Absorptance
  0.5,                                    !- Solar Absorptance
  0.5;                                    !- Visible Absorptance

OS:Construction,
  {2af74b0b-e7b8-451b-813f-8374a1f0fd9d}, !- Handle
  ASHRAE 189.1-2009 ExtWall Mass ClimateZone 4, !- Name
  ,                                       !- Surface Rendering Name
  {77a72d8a-b862-43fc-adbc-91c3973a4e23}, !- Layer 1
  {ecca9368-8e39-44d5-9e52-3a836ff4f31e}, !- Layer 2
  {a5cc0949-6272-441a-9b62-09f0d2785fda}, !- Layer 3
  {da5aa169-7e70-49ee-bb9d-ce25e0654a63}; !- Layer 4

OS:StandardsInformation:Construction,
  {506fe286-c2e3-424b-ac4a-711cec90dba7}, !- Handle
  {2af74b0b-e7b8-451b-813f-8374a1f0fd9d}, !- Construction Name
  ExteriorWall,                           !- Intended Surface Type
  Mass;                                   !- Standards Construction Type

OS:Material,
  {a5cc0949-6272-441a-9b62-09f0d2785fda}, !- Handle
  Wall Insulation [37],                   !- Name
  MediumRough,                            !- Roughness
  0.0680999999999999,                     !- Thickness {m}
  0.0432,                                 !- Conductivity {W/m-K}
  91,                                     !- Density {kg/m3}
  836.999999999999,                       !- Specific Heat {J/kg-K}
  0.9,                                    !- Thermal Absorptance
  0.5,                                    !- Solar Absorptance
  0.5;                                    !- Visible Absorptance

OS:Construction,
  {d2031bac-4d2e-46f8-a1de-4d3976d2b0d2}, !- Handle
  ASHRAE 189.1-2009 ExtWall Mass ClimateZone 5, !- Name
  ,                                       !- Surface Rendering Name
  {77a72d8a-b862-43fc-adbc-91c3973a4e23}, !- Layer 1
  {ecca9368-8e39-44d5-9e52-3a836ff4f31e}, !- Layer 2
  {a84393df-34e9-472b-8cf3-937d8bbee151}, !- Layer 3
  {da5aa169-7e70-49ee-bb9d-ce25e0654a63}; !- Layer 4

OS:StandardsInformation:Construction,
  {5036d7e4-3ba8-4a72-bc77-0532b5169a13}, !- Handle
  {d2031bac-4d2e-46f8-a1de-4d3976d2b0d2}, !- Construction Name
  ExteriorWall,                           !- Intended Surface Type
  Mass;                                   !- Standards Construction Type

OS:Material,
  {a84393df-34e9-472b-8cf3-937d8bbee151}, !- Handle
  Wall Insulation [40],                   !- Name
  MediumRough,                            !- Roughness
  0.0793999999999999,                     !- Thickness {m}
  0.0432,                                 !- Conductivity {W/m-K}
  91,                                     !- Density {kg/m3}
  836.999999999999,                       !- Specific Heat {J/kg-K}
  0.9,                                    !- Thermal Absorptance
  0.5,                                    !- Solar Absorptance
  0.5;                                    !- Visible Absorptance

OS:Construction,
  {0cdc38f1-2621-42cd-ab07-ae96afcc5fcd}, !- Handle
  ASHRAE 189.1-2009 ExtWall Mass ClimateZone 6, !- Name
  ,                                       !- Surface Rendering Name
  {77a72d8a-b862-43fc-adbc-91c3973a4e23}, !- Layer 1
  {ecca9368-8e39-44d5-9e52-3a836ff4f31e}, !- Layer 2
  {5c4af928-6b9e-460e-90d7-2937f7c9f65f}, !- Layer 3
  {da5aa169-7e70-49ee-bb9d-ce25e0654a63}; !- Layer 4

OS:StandardsInformation:Construction,
  {abd69e91-5f08-4258-a0a9-c4c34254cf18}, !- Handle
  {0cdc38f1-2621-42cd-ab07-ae96afcc5fcd}, !- Construction Name
  ExteriorWall,                           !- Intended Surface Type
  Mass;                                   !- Standards Construction Type

OS:Material,
  {5c4af928-6b9e-460e-90d7-2937f7c9f65f}, !- Handle
  Wall Insulation [42],                   !- Name
  MediumRough,                            !- Roughness
  0.0913999999999999,                     !- Thickness {m}
  0.0432,                                 !- Conductivity {W/m-K}
  91,                                     !- Density {kg/m3}
  836.999999999999,                       !- Specific Heat {J/kg-K}
  0.9,                                    !- Thermal Absorptance
  0.5,                                    !- Solar Absorptance
  0.5;                                    !- Visible Absorptance

OS:Construction,
  {d061d4bf-69c3-4d37-8f73-33fafc384ba9}, !- Handle
  ASHRAE 189.1-2009 ExtWall Mass ClimateZone 7-8, !- Name
  ,                                       !- Surface Rendering Name
  {77a72d8a-b862-43fc-adbc-91c3973a4e23}, !- Layer 1
  {ecca9368-8e39-44d5-9e52-3a836ff4f31e}, !- Layer 2
  {8e598175-6690-4645-892a-2eb0d15f9445}, !- Layer 3
  {da5aa169-7e70-49ee-bb9d-ce25e0654a63}; !- Layer 4

OS:StandardsInformation:Construction,
  {202c9050-1b28-4dfe-b1c4-000c0b453449}, !- Handle
  {d061d4bf-69c3-4d37-8f73-33fafc384ba9}, !- Construction Name
  ExteriorWall,                           !- Intended Surface Type
  Mass;                                   !- Standards Construction Type

OS:Material,
  {8e598175-6690-4645-892a-2eb0d15f9445}, !- Handle
  Wall Insulation [44],                   !- Name
  MediumRough,                            !- Roughness
  0.1104,                                 !- Thickness {m}
  0.0432,                                 !- Conductivity {W/m-K}
  91,                                     !- Density {kg/m3}
  836.999999999999,                       !- Specific Heat {J/kg-K}
  0.9,                                    !- Thermal Absorptance
  0.5,                                    !- Solar Absorptance
  0.5;                                    !- Visible Absorptance

OS:Construction,
  {f0e3a729-1896-470c-a55e-f0b99de5286a}, !- Handle
  ASHRAE 189.1-2009 ExtWall Mass ClimateZone alt-res 1, !- Name
  ,                                       !- Surface Rendering Name
  {77a72d8a-b862-43fc-adbc-91c3973a4e23}, !- Layer 1
  {ecca9368-8e39-44d5-9e52-3a836ff4f31e}, !- Layer 2
  {ffa80a99-78d7-4d84-b5b3-3356dd455fdb}, !- Layer 3
  {da5aa169-7e70-49ee-bb9d-ce25e0654a63}; !- Layer 4

OS:StandardsInformation:Construction,
  {7436a62b-da8d-4d0b-ac9c-17f20cfb2ef2}, !- Handle
  {f0e3a729-1896-470c-a55e-f0b99de5286a}, !- Construction Name
  ExteriorWall,                           !- Intended Surface Type
  Mass;                                   !- Standards Construction Type

OS:Construction,
  {8a5fdf38-33a3-4814-8724-02be0bb21ffe}, !- Handle
  ASHRAE 189.1-2009 ExtWall Mass ClimateZone alt-res 2, !- Name
  ,                                       !- Surface Rendering Name
  {77a72d8a-b862-43fc-adbc-91c3973a4e23}, !- Layer 1
  {ecca9368-8e39-44d5-9e52-3a836ff4f31e}, !- Layer 2
  {aa174c0a-e314-4950-a4ac-ca72d849c5f8}, !- Layer 3
  {da5aa169-7e70-49ee-bb9d-ce25e0654a63}; !- Layer 4

OS:StandardsInformation:Construction,
  {83f5e9e1-0aff-4754-bc75-dd104dc846b2}, !- Handle
  {8a5fdf38-33a3-4814-8724-02be0bb21ffe}, !- Construction Name
  ExteriorWall,                           !- Intended Surface Type
  Mass;                                   !- Standards Construction Type

OS:Construction,
  {97ef8ba2-3253-43b1-a94a-02c5be2be3fa}, !- Handle
  ASHRAE 189.1-2009 ExtWall Mass ClimateZone alt-res 3, !- Name
  ,                                       !- Surface Rendering Name
  {77a72d8a-b862-43fc-adbc-91c3973a4e23}, !- Layer 1
  {ecca9368-8e39-44d5-9e52-3a836ff4f31e}, !- Layer 2
  {a5cc0949-6272-441a-9b62-09f0d2785fda}, !- Layer 3
  {da5aa169-7e70-49ee-bb9d-ce25e0654a63}; !- Layer 4

OS:StandardsInformation:Construction,
  {fe3456c7-baa4-4dca-8c4b-849ebac03d66}, !- Handle
  {97ef8ba2-3253-43b1-a94a-02c5be2be3fa}, !- Construction Name
  ExteriorWall,                           !- Intended Surface Type
  Mass;                                   !- Standards Construction Type

OS:Construction,
  {00adc4f1-c5aa-4b31-9886-ffa8c2230bda}, !- Handle
  ASHRAE 189.1-2009 ExtWall Mass ClimateZone alt-res 4, !- Name
  ,                                       !- Surface Rendering Name
  {77a72d8a-b862-43fc-adbc-91c3973a4e23}, !- Layer 1
  {ecca9368-8e39-44d5-9e52-3a836ff4f31e}, !- Layer 2
  {a84393df-34e9-472b-8cf3-937d8bbee151}, !- Layer 3
  {da5aa169-7e70-49ee-bb9d-ce25e0654a63}; !- Layer 4

OS:StandardsInformation:Construction,
  {4932b560-fbef-468a-abe8-a6cc756a4c20}, !- Handle
  {00adc4f1-c5aa-4b31-9886-ffa8c2230bda}, !- Construction Name
  ExteriorWall,                           !- Intended Surface Type
  Mass;                                   !- Standards Construction Type

OS:Construction,
  {9ec29d50-a7d4-4576-bf61-947edf991701}, !- Handle
  ASHRAE 189.1-2009 ExtWall Mass ClimateZone alt-res 5, !- Name
  ,                                       !- Surface Rendering Name
  {77a72d8a-b862-43fc-adbc-91c3973a4e23}, !- Layer 1
  {ecca9368-8e39-44d5-9e52-3a836ff4f31e}, !- Layer 2
  {5c4af928-6b9e-460e-90d7-2937f7c9f65f}, !- Layer 3
  {da5aa169-7e70-49ee-bb9d-ce25e0654a63}; !- Layer 4

OS:StandardsInformation:Construction,
  {cb288439-11b4-47ab-85b1-3b2116834d7e}, !- Handle
  {9ec29d50-a7d4-4576-bf61-947edf991701}, !- Construction Name
  ExteriorWall,                           !- Intended Surface Type
  Mass;                                   !- Standards Construction Type

OS:Construction,
  {70c35d67-16a2-4fa3-bf9f-71715ebdc0b2}, !- Handle
  ASHRAE 189.1-2009 ExtWall Mass ClimateZone alt-res 6, !- Name
  ,                                       !- Surface Rendering Name
  {77a72d8a-b862-43fc-adbc-91c3973a4e23}, !- Layer 1
  {ecca9368-8e39-44d5-9e52-3a836ff4f31e}, !- Layer 2
  {8e598175-6690-4645-892a-2eb0d15f9445}, !- Layer 3
  {da5aa169-7e70-49ee-bb9d-ce25e0654a63}; !- Layer 4

OS:StandardsInformation:Construction,
  {d9776b4c-9c31-46a2-9ba3-ad2f2eeddfdc}, !- Handle
  {70c35d67-16a2-4fa3-bf9f-71715ebdc0b2}, !- Construction Name
  ExteriorWall,                           !- Intended Surface Type
  Mass;                                   !- Standards Construction Type

OS:Construction,
  {6d58a1ca-5695-4371-b45e-2e05423b8ef2}, !- Handle
  ASHRAE 189.1-2009 ExtWall Mass ClimateZone alt-res 7, !- Name
  ,                                       !- Surface Rendering Name
  {77a72d8a-b862-43fc-adbc-91c3973a4e23}, !- Layer 1
  {ecca9368-8e39-44d5-9e52-3a836ff4f31e}, !- Layer 2
  {8e598175-6690-4645-892a-2eb0d15f9445}, !- Layer 3
  {da5aa169-7e70-49ee-bb9d-ce25e0654a63}; !- Layer 4

OS:StandardsInformation:Construction,
  {7d85dc04-beed-4ffe-9e8b-c9e21670832e}, !- Handle
  {6d58a1ca-5695-4371-b45e-2e05423b8ef2}, !- Construction Name
  ExteriorWall,                           !- Intended Surface Type
  Mass;                                   !- Standards Construction Type

OS:Construction,
  {1910dbd1-ef54-4419-aefc-8052ff30c063}, !- Handle
  ASHRAE 189.1-2009 ExtWall Mass ClimateZone alt-res 8, !- Name