
OS:Version,
  {26c21aac-c41f-4237-8857-6b072ccecc82}, !- Handle
  1.2.3;                                  !- Version Identifier

OS:Construction,
  {d6ae740b-d592-4a5c-b836-ff48c99ca271}, !- Handle
  ASHRAE 189.1-2009 AtticFloor ClimateZone 1-8, !- Name
  ,                                       !- Surface Rendering Name
  {4430d99b-0b8d-4a88-9b5e-3da810734c0c}, !- Layer 1
  {da2918d7-c389-4f5f-8a7c-9fc276157259}, !- Layer 2
  {4430d99b-0b8d-4a88-9b5e-3da810734c0c}; !- Layer 3

OS:StandardsInformation:Construction,
  {0c6f784c-0949-4c07-915a-e4c21d392a70}, !- Handle
  {d6ae740b-d592-4a5c-b836-ff48c99ca271}, !- Construction Name
  AtticFloor,                             !- Intended Surface Type
  ASHRAE 189.1-2009;                      !- Standards Construction Type

OS:Material,
  {4430d99b-0b8d-4a88-9b5e-3da810734c0c}, !- Handle
  1/2IN Gypsum,                           !- Name
  Smooth,                                 !- Roughness
  0.0127,                                 !- Thickness {m}
  0.16,                                   !- Conductivity {W/m-K}
  784.9,                                  !- Density {kg/m3}
  830.000000000001,                       !- Specific Heat {J/kg-K}
  0.9,                                    !- Thermal Absorptance
  0.92,                                   !- Solar Absorptance
  0.92;                                   !- Visible Absorptance

OS:Material,
  {da2918d7-c389-4f5f-8a7c-9fc276157259}, !- Handle
  AtticFloor Insulation,                  !- Name
  MediumRough,                            !- Roughness
  0.2379,                                 !- Thickness {m}
  0.049,                                  !- Conductivity {W/m-K}
  265,                                    !- Density {kg/m3}
  836.800000000001,                       !- Specific Heat {J/kg-K}
  0.9,                                    !- Thermal Absorptance
  0.7,                                    !- Solar Absorptance
  0.7;                                    !- Visible Absorptance

OS:Construction,
  {879e311d-0e67-44aa-afa8-c98c7866d72e}, !- Handle
  ASHRAE 189.1-2009 ExtRoof IEAD ClimateZone 1, !- Name
  ,                                       !- Surface Rendering Name
  {5a67fe6b-0c9d-42d1-b404-e395d1a047a2}, !- Layer 1
  {28cba157-f2f3-4364-acc7-2a64a7b3bf8a}, !- Layer 2
  {30319897-f3c6-48f3-8526-72cd66e485a7}; !- Layer 3

OS:StandardsInformation:Construction,
  {3c4d0145-4bf3-4e1d-94a6-01c47cf79dfe}, !- Handle
  {879e311d-0e67-44aa-afa8-c98c7866d72e}, !- Construction Name
  ExteriorRoof,                           !- Intended Surface Type
  ASHRAE 189.1-2009;                      !- Standards Construction Type

OS:Material,
  {5a67fe6b-0c9d-42d1-b404-e395d1a047a2}, !- Handle
  Roof Membrane,                          !- Name
  VeryRough,                              !- Roughness
  0.0095,                                 !- Thickness {m}
  0.16,                                   !- Conductivity {W/m-K}
  1121.29,                                !- Density {kg/m3}
  1460,                                   !- Specific Heat {J/kg-K}
  0.9,                                    !- Thermal Absorptance
  0.7,                                    !- Solar Absorptance
  0.7;                                    !- Visible Absorptance

OS:Material,
  {28cba157-f2f3-4364-acc7-2a64a7b3bf8a}, !- Handle
  Roof Insulation [18],                   !- Name
  MediumRough,                            !- Roughness
  0.1693,                                 !- Thickness {m}
  0.049,                                  !- Conductivity {W/m-K}
  265,                                    !- Density {kg/m3}
  836.800000000001,                       !- Specific Heat {J/kg-K}
  0.9,                                    !- Thermal Absorptance
  0.7,                                    !- Solar Absorptance
  0.7;                                    !- Visible Absorptance

OS:Material,
  {30319897-f3c6-48f3-8526-72cd66e485a7}, !- Handle
  Metal Decking,                          !- Name
  MediumSmooth,                           !- Roughness
  0.0015,                                 !- Thickness {m}
  45.006,                                 !- Conductivity {W/m-K}
  7680,                                   !- Density {kg/m3}
  418.4,                                  !- Specific Heat {J/kg-K}
  0.9,                                    !- Thermal Absorptance
  0.7,                                    !- Solar Absorptance
  0.3;                                    !- Visible Absorptance

OS:Construction,
  {9ec5e208-4b63-411e-ba2c-7341d79a4809}, !- Handle
  ASHRAE 189.1-2009 ExtRoof IEAD ClimateZone 2-5, !- Name
  ,                                       !- Surface Rendering Name
  {5a67fe6b-0c9d-42d1-b404-e395d1a047a2}, !- Layer 1
  {1ae75edb-7242-445a-a044-7bf5ffbc6cc6}, !- Layer 2
  {30319897-f3c6-48f3-8526-72cd66e485a7}; !- Layer 3

OS:StandardsInformation:Construction,
  {79293daf-8b5f-4b95-bb7b-130b2dc51f52}, !- Handle
  {9ec5e208-4b63-411e-ba2c-7341d79a4809}, !- Construction Name
  ExteriorRoof,                           !- Intended Surface Type
  ASHRAE 189.1-2009;                      !- Standards Construction Type

OS:Material,
  {1ae75edb-7242-445a-a044-7bf5ffbc6cc6}, !- Handle
  Roof Insulation [21],                   !- Name
  MediumRough,                            !- Roughness
  0.2105,                                 !- Thickness {m}
  0.049,                                  !- Conductivity {W/m-K}
  265,                                    !- Density {kg/m3}
  836.800000000001,                       !- Specific Heat {J/kg-K}
  0.9,                                    !- Thermal Absorptance
  0.7,                                    !- Solar Absorptance
  0.7;                                    !- Visible Absorptance

OS:Construction,
  {8d23c743-a9ff-4fbe-a3d7-b6e04fbd3aad}, !- Handle
  ASHRAE 189.1-2009 ExtRoof IEAD ClimateZone 6, !- Name
  ,                                       !- Surface Rendering Name
  {5a67fe6b-0c9d-42d1-b404-e395d1a047a2}, !- Layer 1
  {93266aa5-d573-474c-8c2b-60800d146a84}, !- Layer 2
  {30319897-f3c6-48f3-8526-72cd66e485a7}; !- Layer 3

OS:StandardsInformation:Construction,
  {71e1cc52-043a-4a96-b1f8-4d6c0c1d2959}, !- Handle
  {8d23c743-a9ff-4fbe-a3d7-b6e04fbd3aad}, !- Construction Name
  ExteriorRoof,                           !- Intended Surface Type
  ASHRAE 189.1-2009;                      !- Standards Construction Type

OS:Material,
  {93266aa5-d573-474c-8c2b-60800d146a84}, !- Handle
  Roof Insulation [24],                   !- Name
  MediumRough,                            !- Roughness
  0.260100000000001,                      !- Thickness {m}
  0.049,                                  !- Conductivity {W/m-K}
  265,                                    !- Density {kg/m3}
  836.800000000001,                       !- Specific Heat {J/kg-K}
  0.9,                                    !- Thermal Absorptance
  0.7,                                    !- Solar Absorptance
  0.7;                                    !- Visible Absorptance

OS:Construction,
  {48d9d448-9770-4b3c-8b30-b933e7ed8c5a}, !- Handle
  ASHRAE 189.1-2009 ExtRoof IEAD ClimateZone 7-8, !- Name
  ,                                       !- Surface Rendering Name
  {5a67fe6b-0c9d-42d1-b404-e395d1a047a2}, !- Layer 1
  {1a39ef7a-7cf6-429a-b59b-8e6f9ec26c18}, !- Layer 2
  {30319897-f3c6-48f3-8526-72cd66e485a7}; !- Layer 3

OS:StandardsInformation:Construction,
  {af70a7d8-293e-431b-89ef-80144feb04b8}, !- Handle
  {48d9d448-9770-4b3c-8b30-b933e7ed8c5a}, !- Construction Name
  ExteriorRoof,                           !- Intended Surface Type
  ASHRAE 189.1-2009;                      !- Standards Construction Type

OS:Material,
  {1a39ef7a-7cf6-429a-b59b-8e6f9ec26c18}, !- Handle
  Roof Insulation [26],                   !- Name
  MediumRough,                            !- Roughness
  0.2941,                                 !- Thickness {m}
  0.049,                                  !- Conductivity {W/m-K}
  265,                                    !- Density {kg/m3}
  836.800000000001,                       !- Specific Heat {J/kg-K}
  0.9,                                    !- Thermal Absorptance
  0.7,                                    !- Solar Absorptance
  0.7;                                    !- Visible Absorptance

OS:Construction,
  {09a7c961-0c64-4667-b7c5-25005c817e9e}, !- Handle
  ASHRAE 189.1-2009 ExtRoof Metal ClimateZone 1, !- Name
  ,                                       !- Surface Rendering Name
  {ea70d740-4eea-4a5a-9942-7130cf3eb0ce}, !- Layer 1
  {aefe30f4-519b-4169-8edf-51c3b8a117e4}; !- Layer 2

OS:StandardsInformation:Construction,
  {786b887d-17dc-436b-94ba-2ca347081940}, !- Handle
  {09a7c961-0c64-4667-b7c5-25005c817e9e}, !- Construction Name
  ExteriorRoof,                           !- Intended Surface Type
  ASHRAE 189.1-2009;                      !- Standards Construction Type

OS:Material,
  {ea70d740-4eea-4a5a-9942-7130cf3eb0ce}, !- Handle
  Metal Roofing,                          !- Name
  MediumSmooth,                           !- Roughness
  0.0015,                                 !- Thickness {m}
  45.006,                                 !- Conductivity {W/m-K}
  7680,                                   !- Density {kg/m3}
  418.4,                                  !- Specific Heat {J/kg-K}
  0.9,                                    !- Thermal Absorptance
  0.3,                                    !- Solar Absorptance
  0.3;                                    !- Visible Absorptance

OS:Material,
  {aefe30f4-519b-4169-8edf-51c3b8a117e4}, !- Handle
  Roof Insulation [19],                   !- Name
  MediumRough,                            !- Roughness
  0.1868,                                 !- Thickness {m}
  0.049,                                  !- Conductivity {W/m-K}
  265,                                    !- Density {kg/m3}
  836.800000000001,                       !- Specific Heat {J/kg-K}
  0.9,                                    !- Thermal Absorptance
  0.7,                                    !- Solar Absorptance
  0.7;                                    !- Visible Absorptance

OS:Construction,
  {d95a4a07-fe33-40d0-840a-f2f54ed08cb5}, !- Handle
  ASHRAE 189.1-2009 ExtRoof Metal ClimateZone 2-5, !- Name
  ,                                       !- Surface Rendering Name
  {ea70d740-4eea-4a5a-9942-7130cf3eb0ce}, !- Layer 1
  {170dfb63-b8c4-41d2-8545-2c80df8f872e}; !- Layer 2

OS:StandardsInformation:Construction,
  {e3735769-ada0-4a45-9b77-8dfc989d5a2e}, !- Handle
  {d95a4a07-fe33-40d0-840a-f2f54ed08cb5}, !- Construction Name
  ExteriorRoof,                           !- Intended Surface Type
  ASHRAE 189.1-2009;                      !- Standards Construction Type

OS:Material,
  {170dfb63-b8c4-41d2-8545-2c80df8f872e}, !- Handle
  Roof Insulation [22],                   !- Name
  MediumRough,                            !- Roughness
  0.2358,                                 !- Thickness {m}
  0.049,                                  !- Conductivity {W/m-K}
  265,                                    !- Density {kg/m3}
  836.800000000001,                       !- Specific Heat {J/kg-K}
  0.9,                                    !- Thermal Absorptance
  0.7,                                    !- Solar Absorptance
  0.7;                                    !- Visible Absorptance

OS:Construction,
  {1415658f-1b90-4d01-9bef-cb7b943b631c}, !- Handle
  ASHRAE 189.1-2009 ExtRoof Metal ClimateZone 6, !- Name
  ,                                       !- Surface Rendering Name
  {ea70d740-4eea-4a5a-9942-7130cf3eb0ce}, !- Layer 1
  {7214336f-effb-402f-92a2-14657491753d}; !- Layer 2

OS:StandardsInformation:Construction,
  {98d21642-c580-41d0-a772-1f301a06c3a1}, !- Handle
  {1415658f-1b90-4d01-9bef-cb7b943b631c}, !- Construction Name
  ExteriorRoof,                           !- Intended Surface Type
  ASHRAE 189.1-2009;                      !- Standards Construction Type

OS:Material,
  {7214336f-effb-402f-92a2-14657491753d}, !- Handle
  Roof Insulation [25],                   !- Name
  MediumRough,                            !- Roughness
  0.263,                                  !- Thickness {m}
  0.049,                                  !- Conductivity {W/m-K}
  265,                                    !- Density {kg/m3}
  836.800000000001,                       !- Specific Heat {J/kg-K}
  0.9,                                    !- Thermal Absorptance
  0.7,                                    !- Solar Absorptance
  0.7;                                    !- Visible Absorptance

OS:Construction,
  {30a6e3b4-fd86-4dc9-b0a2-6d9eb085ef2b}, !- Handle
  ASHRAE 189.1-2009 ExtRoof Metal ClimateZone 7-8, !- Name
  ,                                       !- Surface Rendering Name
  {ea70d740-4eea-4a5a-9942-7130cf3eb0ce}, !- Layer 1
  {ad8b4638-6f01-4e8e-94bc-e0a33d7d405a}; !- Layer 2

OS:StandardsInformation:Construction,
  {0c8d6824-3f8d-4ce0-8dbf-cc479ffd2a58}, !- Handle
  {30a6e3b4-fd86-4dc9-b0a2-6d9eb085ef2b}, !- Construction Name
  ExteriorRoof,                           !- Intended Surface Type
  ASHRAE 189.1-2009;                      !- Standards Construction Type

OS:Material,
  {ad8b4638-6f01-4e8e-94bc-e0a33d7d405a}, !- Handle
  Roof Insulation [27],                   !- Name
  MediumRough,                            !- Roughness
  0.297000000000001,                      !- Thickness {m}
  0.049,                                  !- Conductivity {W/m-K}
  265,                                    !- Density {kg/m3}
  836.800000000001,                       !- Specific Heat {J/kg-K}
  0.9,                                    !- Thermal Absorptance
  0.7,                                    !- Solar Absorptance
  0.7;                                    !- Visible Absorptance

OS:Construction,
  {3d00d268-1442-4a20-95ba-1a2162b45360}, !- Handle
  ASHRAE 189.1-2009 ExtWall Mass ClimateZone 1, !- Name
  ,                                       !- Surface Rendering Name
  {cc4cede3-d25b-45c9-b636-25b523ddfdbe}, !- Layer 1
  {3e1a0d2e-156f-439a-8c5b-9dfd9cdab424}, !- Layer 2
  {8d7c7b80-b56e-4a0b-a17a-95af117fa2fc}, !- Layer 3
  {4430d99b-0b8d-4a88-9b5e-3da810734c0c}; !- Layer 4

OS:StandardsInformation:Construction,
  {2cc5f935-8ae3-429b-aef5-079010ae1734}, !- Handle
  {3d00d268-1442-4a20-95ba-1a2162b45360}, !- Construction Name
  ExteriorWall,                           !- Intended Surface Type
  ASHRAE 189.1-2009;                      !- Standards Construction Type

OS:Material,
  {cc4cede3-d25b-45c9-b636-25b523ddfdbe}, !- Handle
  1IN Stucco,                             !- Name
  Smooth,                                 !- Roughness
  0.0253,                                 !- Thickness {m}
  0.691799999999999,                      !- Conductivity {W/m-K}
  1858,                                   !- Density {kg/m3}
  836.999999999999,                       !- Specific Heat {J/kg-K}
  0.9,                                    !- Thermal Absorptance
  0.92,                                   !- Solar Absorptance
  0.92;                                   !- Visible Absorptance

OS:Material,
  {3e1a0d2e-156f-439a-8c5b-9dfd9cdab424}, !- Handle
  8IN Concrete HW,                        !- Name
  MediumRough,                            !- Roughness
  0.2033,                                 !- Thickness {m}
  1.72959999999999,                       !- Conductivity {W/m-K}
  2242.99999999999,                       !- Density {kg/m3}
  836.999999999999,                       !- Specific Heat {J/kg-K}
  0.9,                                    !- Thermal Absorptance
  0.65,                                   !- Solar Absorptance
  0.65;                                   !- Visible Absorptance

OS:Material,
  {8d7c7b80-b56e-4a0b-a17a-95af117fa2fc}, !- Handle
  Wall Insulation [31],                   !- Name
  MediumRough,                            !- Roughness
  0.0337000000000001,                     !- Thickness {m}
  0.0432,                                 !- Conductivity {W/m-K}
  91,                                     !- Density {kg/m3}
  836.999999999999,                       !- Specific Heat {J/kg-K}
  0.9,                                    !- Thermal Absorptance
  0.5,                                    !- Solar Absorptance
  0.5;                                    !- Visible Absorptance

OS:Construction,
  {2e9dd50a-1961-4862-ac7d-9b96004ca3b1}, !- Handle
  ASHRAE 189.1-2009 ExtWall Mass ClimateZone 2, !- Name
  ,                                       !- Surface Rendering Name
  {cc4cede3-d25b-45c9-b636-25b523ddfdbe}, !- Layer 1
  {3e1a0d2e-156f-439a-8c5b-9dfd9cdab424}, !- Layer 2
  {7b626a57-0abe-4524-91ff-148e10fd4b8f}, !- Layer 3
  {4430d99b-0b8d-4a88-9b5e-3da810734c0c}; !- Layer 4

OS:StandardsInformation:Construction,
  {d14e396f-7af2-48c7-8763-568fe056cade}, !- Handle
  {2e9dd50a-1961-4862-ac7d-9b96004ca3b1}, !- Construction Name
  ExteriorWall,                           !- Intended Surface Type
  ASHRAE 189.1-2009;                      !- Standards Construction Type

OS:Material,
  {7b626a57-0abe-4524-91ff-148e10fd4b8f}, !- Handle
  Wall Insulation [35],                   !- Name
  MediumRough,                            !- Roughness
  0.0452,                                 !- Thickness {m}
  0.0432,                                 !- Conductivity {W/m-K}
  91,                                     !- Density {kg/m3}
  836.999999999999,                       !- Specific Heat {J/kg-K}
  0.9,                                    !- Thermal Absorptance
  0.5,                                    !- Solar Absorptance
  0.5;                                    !- Visible Absorptance

OS:Construction,
  {4336520d-4703-4efd-beed-f5e0192573cc}, !- Handle
  ASHRAE 189.1-2009 ExtWall Mass ClimateZone 3, !- Name
  ,                                       !- Surface Rendering Name
  {cc4cede3-d25b-45c9-b636-25b523ddfdbe}, !- Layer 1
  {3e1a0d2e-156f-439a-8c5b-9dfd9cdab424}, !- Layer 2
  {516c82a1-2608-468b-a196-1c10eb737495}, !- Layer 3
  {4430d99b-0b8d-4a88-9b5e-3da810734c0c}; !- Layer 4

OS:StandardsInformation:Construction,
  {d3d5f338-2f54-4dba-a4c0-6b7d1fb5425e}, !- Handle
  {4336520d-4703-4efd-beed-f5e0192573cc}, !- Construction Name
  ExteriorWall,                           !- Intended Surface Type
  ASHRAE 189.1-2009;                      !- Standards Construction Type

OS:Material,
  {516c82a1-2608-468b-a196-1c10eb737495}, !- Handle
  Wall Insulation [36],                   !- Name
  MediumRough,                            !- Roughness
  0.0565999999999999,                     !- Thickness {m}
  0.0432,                                 !- Conductivity {W/m-K}
  91,                                     !- Density {kg/m3}
  836.999999999999,                       !- Specific Heat {J/kg-K}
  0.9,                                    !- Thermal Absorptance
  0.5,                                    !- Solar Absorptance
  0.5;                                    !- Visible Absorptance

OS:Construction,
  {4c93a556-76ef-4abc-a1ac-81c3bb841e24}, !- Handle
  ASHRAE 189.1-2009 ExtWall Mass ClimateZone 4, !- Name
  ,                                       !- Surface Rendering Name
  {cc4cede3-d25b-45c9-b636-25b523ddfdbe}, !- Layer 1
  {3e1a0d2e-156f-439a-8c5b-9dfd9cdab424}, !- Layer 2
  {8a65c61a-84e3-4400-a0d4-45f16bbe1df3}, !- Layer 3
  {4430d99b-0b8d-4a88-9b5e-3da810734c0c}; !- Layer 4

OS:StandardsInformation:Construction,
  {6a221d2e-63e9-4157-85f0-d958d660ca7b}, !- Handle
  {4c93a556-76ef-4abc-a1ac-81c3bb841e24}, !- Construction Name
  ExteriorWall,                           !- Intended Surface Type
  ASHRAE 189.1-2009;                      !- Standards Construction Type

OS:Material,
  {8a65c61a-84e3-4400-a0d4-45f16bbe1df3}, !- Handle
  Wall Insulation [37],                   !- Name
  MediumRough,                            !- Roughness
  0.0680999999999999,                     !- Thickness {m}
  0.0432,                                 !- Conductivity {W/m-K}
  91,                                     !- Density {kg/m3}
  836.999999999999,                       !- Specific Heat {J/kg-K}
  0.9,                                    !- Thermal Absorptance
  0.5,                                    !- Solar Absorptance
  0.5;                                    !- Visible Absorptance

OS:Construction,
  {8f914c66-a9cc-474d-8d49-21efa9749e58}, !- Handle
  ASHRAE 189.1-2009 ExtWall Mass ClimateZone 5, !- Name
  ,                                       !- Surface Rendering Name
  {cc4cede3-d25b-45c9-b636-25b523ddfdbe}, !- Layer 1
  {3e1a0d2e-156f-439a-8c5b-9dfd9cdab424}, !- Layer 2
  {f296b26f-6702-4ffb-990e-b54c669dc26a}, !- Layer 3
  {4430d99b-0b8d-4a88-9b5e-3da810734c0c}; !- Layer 4

OS:StandardsInformation:Construction,
  {b3a4f400-1ad9-4d99-86f8-1672be69b3e1}, !- Handle
  {8f914c66-a9cc-474d-8d49-21efa9749e58}, !- Construction Name
  ExteriorWall,                           !- Intended Surface Type
  ASHRAE 189.1-2009;                      !- Standards Construction Type

OS:Material,
  {f296b26f-6702-4ffb-990e-b54c669dc26a}, !- Handle
  Wall Insulation [40],                   !- Name
  MediumRough,                            !- Roughness
  0.0793999999999999,                     !- Thickness {m}
  0.0432,                                 !- Conductivity {W/m-K}
  91,                                     !- Density {kg/m3}
  836.999999999999,                       !- Specific Heat {J/kg-K}
  0.9,                                    !- Thermal Absorptance
  0.5,                                    !- Solar Absorptance
  0.5;                                    !- Visible Absorptance

OS:Construction,
  {f7f7501a-da6f-41cd-b56b-54e15cef018f}, !- Handle
  ASHRAE 189.1-2009 ExtWall Mass ClimateZone 6, !- Name
  ,                                       !- Surface Rendering Name
  {cc4cede3-d25b-45c9-b636-25b523ddfdbe}, !- Layer 1
  {3e1a0d2e-156f-439a-8c5b-9dfd9cdab424}, !- Layer 2
  {2e41061d-2bf4-4715-984c-4ac4b03d344e}, !- Layer 3
  {4430d99b-0b8d-4a88-9b5e-3da810734c0c}; !- Layer 4

OS:StandardsInformation:Construction,
  {00eccd15-00a6-4109-b2f0-ee23b611bf3f}, !- Handle
  {f7f7501a-da6f-41cd-b56b-54e15cef018f}, !- Construction Name
  ExteriorWall,                           !- Intended Surface Type
  ASHRAE 189.1-2009;                      !- Standards Construction Type

OS:Material,
  {2e41061d-2bf4-4715-984c-4ac4b03d344e}, !- Handle
  Wall Insulation [42],                   !- Name
  MediumRough,                            !- Roughness
  0.0913999999999999,                     !- Thickness {m}
  0.0432,                                 !- Conductivity {W/m-K}
  91,                                     !- Density {kg/m3}
  836.999999999999,                       !- Specific Heat {J/kg-K}
  0.9,                                    !- Thermal Absorptance
  0.5,                                    !- Solar Absorptance
  0.5;                                    !- Visible Absorptance

OS:Construction,
  {60b89a68-e634-41b5-927c-32e63c2062e1}, !- Handle
  ASHRAE 189.1-2009 ExtWall Mass ClimateZone 7-8, !- Name
  ,                                       !- Surface Rendering Name
  {cc4cede3-d25b-45c9-b636-25b523ddfdbe}, !- Layer 1
  {3e1a0d2e-156f-439a-8c5b-9dfd9cdab424}, !- Layer 2
  {36214cac-88ef-46e8-bd6e-7146bfff52ff}, !- Layer 3
  {4430d99b-0b8d-4a88-9b5e-3da810734c0c}; !- Layer 4

OS:StandardsInformation:Construction,
  {86f96ee9-b459-4c2a-8c7f-bd23b8f2e121}, !- Handle
  {60b89a68-e634-41b5-927c-32e63c2062e1}, !- Construction Name
  ExteriorWall,                           !- Intended Surface Type
  ASHRAE 189.1-2009;                      !- Standards Construction Type

OS:Material,
  {36214cac-88ef-46e8-bd6e-7146bfff52ff}, !- Handle
  Wall Insulation [44],                   !- Name
  MediumRough,                            !- Roughness
  0.1104,                                 !- Thickness {m}
  0.0432,                                 !- Conductivity {W/m-K}
  91,                                     !- Density {kg/m3}
  836.999999999999,                       !- Specific Heat {J/kg-K}
  0.9,                                    !- Thermal Absorptance
  0.5,                                    !- Solar Absorptance
  0.5;                                    !- Visible Absorptance

OS:Construction,
  {fa91e794-7f33-4345-a9d3-59aea48c5c5c}, !- Handle
  ASHRAE 189.1-2009 ExtWall Mass ClimateZone alt-res 1, !- Name
  ,                                       !- Surface Rendering Name
  {cc4cede3-d25b-45c9-b636-25b523ddfdbe}, !- Layer 1
  {3e1a0d2e-156f-439a-8c5b-9dfd9cdab424}, !- Layer 2
  {7b626a57-0abe-4524-91ff-148e10fd4b8f}, !- Layer 3
  {4430d99b-0b8d-4a88-9b5e-3da810734c0c}; !- Layer 4

OS:StandardsInformation:Construction,
  {f21a69f8-ce26-424a-afe7-62545b41a7e0}, !- Handle
  {fa91e794-7f33-4345-a9d3-59aea48c5c5c}, !- Construction Name
  ExteriorWall,                           !- Intended Surface Type
  ASHRAE 189.1-2009;                      !- Standards Construction Type

OS:Construction,
  {e5691f4f-dbe0-476c-b29d-efe53436c897}, !- Handle
  ASHRAE 189.1-2009 ExtWall Mass ClimateZone alt-res 2, !- Name
  ,                                       !- Surface Rendering Name
  {cc4cede3-d25b-45c9-b636-25b523ddfdbe}, !- Layer 1
  {3e1a0d2e-156f-439a-8c5b-9dfd9cdab424}, !- Layer 2
  {516c82a1-2608-468b-a196-1c10eb737495}, !- Layer 3
  {4430d99b-0b8d-4a88-9b5e-3da810734c0c}; !- Layer 4

OS:StandardsInformation:Construction,
  {0bbf7803-f03b-47d7-b837-1e9456af9b64}, !- Handle
  {e5691f4f-dbe0-476c-b29d-efe53436c897}, !- Construction Name
  ExteriorWall,                           !- Intended Surface Type
  ASHRAE 189.1-2009;                      !- Standards Construction Type

OS:Construction,
  {a8450b34-eaf9-4d6d-8d23-2894b8736d05}, !- Handle
  ASHRAE 189.1-2009 ExtWall Mass ClimateZone alt-res 3, !- Name
  ,                                       !- Surface Rendering Name
  {cc4cede3-d25b-45c9-b636-25b523ddfdbe}, !- Layer 1
  {3e1a0d2e-156f-439a-8c5b-9dfd9cdab424}, !- Layer 2
  {8a65c61a-84e3-4400-a0d4-45f16bbe1df3}, !- Layer 3
  {4430d99b-0b8d-4a88-9b5e-3da810734c0c}; !- Layer 4

OS:StandardsInformation:Construction,
  {9e887855-ef66-4b8c-8c87-e61c05eca061}, !- Handle
  {a8450b34-eaf9-4d6d-8d23-2894b8736d05}, !- Construction Name
  ExteriorWall,                           !- Intended Surface Type
  ASHRAE 189.1-2009;                      !- Standards Construction Type

OS:Construction,
  {b37e13c8-c40c-47f3-b071-08a188d87e0c}, !- Handle
  ASHRAE 189.1-2009 ExtWall Mass ClimateZone alt-res 4, !- Name
  ,                                       !- Surface Rendering Name
  {cc4cede3-d25b-45c9-b636-25b523ddfdbe}, !- Layer 1
  {3e1a0d2e-156f-439a-8c5b-9dfd9cdab424}, !- Layer 2
  {f296b26f-6702-4ffb-990e-b54c669dc26a}, !- Layer 3
  {4430d99b-0b8d-4a88-9b5e-3da810734c0c}; !- Layer 4

OS:StandardsInformation:Construction,
  {f39ca72a-06fe-4d79-bf2b-8d50b714b068}, !- Handle
  {b37e13c8-c40c-47f3-b071-08a188d87e0c}, !- Construction Name
  ExteriorWall,                           !- Intended Surface Type
  ASHRAE 189.1-2009;                      !- Standards Construction Type

OS:Construction,
  {3dce6b78-9af9-4abf-b6b1-0f80d83af314}, !- Handle
  ASHRAE 189.1-2009 ExtWall Mass ClimateZone alt-res 5, !- Name
  ,                                       !- Surface Rendering Name
  {cc4cede3-d25b-45c9-b636-25b523ddfdbe}, !- Layer 1
  {3e1a0d2e-156f-439a-8c5b-9dfd9cdab424}, !- Layer 2
  {2e41061d-2bf4-4715-984c-4ac4b03d344e}, !- Layer 3
  {4430d99b-0b8d-4a88-9b5e-3da810734c0c}; !- Layer 4

OS:StandardsInformation:Construction,
  {e97b386c-b0e5-41c6-adba-f635468e0286}, !- Handle
  {3dce6b78-9af9-4abf-b6b1-0f80d83af314}, !- Construction Name
  ExteriorWall,                           !- Intended Surface Type
  ASHRAE 189.1-2009;                      !- Standards Construction Type

OS:Construction,
  {8ea5380e-8912-4954-9351-ede1024383d6}, !- Handle
  ASHRAE 189.1-2009 ExtWall Mass ClimateZone alt-res 6, !- Name
  ,                                       !- Surface Rendering Name
  {cc4cede3-d25b-45c9-b636-25b523ddfdbe}, !- Layer 1
  {3e1a0d2e-156f-439a-8c5b-9dfd9cdab424}, !- Layer 2
  {36214cac-88ef-46e8-bd6e-7146bfff52ff}, !- Layer 3
  {4430d99b-0b8d-4a88-9b5e-3da810734c0c}; !- Layer 4

OS:StandardsInformation:Construction,
  {fc829eab-6f09-4328-8f79-8c7cf1e50951}, !- Handle
  {8ea5380e-8912-4954-9351-ede1024383d6}, !- Construction Name
  ExteriorWall,                           !- Intended Surface Type
  ASHRAE 189.1-2009;                      !- Standards Construction Type

OS:Construction,
  {5e4e558b-99a6-44b9-a0eb-fc7887713719}, !- Handle
  ASHRAE 189.1-2009 ExtWall Mass ClimateZone alt-res 7, !- Name
  ,                                       !- Surface Rendering Name
  {cc4cede3-d25b-45c9-b636-25b523ddfdbe}, !- Layer 1
  {3e1a0d2e-156f-439a-8c5b-9dfd9cdab424}, !- Layer 2
  {36214cac-88ef-46e8-bd6e-7146bfff52ff}, !- Layer 3
  {4430d99b-0b8d-4a88-9b5e-3da810734c0c}; !- Layer 4

OS:StandardsInformation:Construction,
  {b2f53924-87a8-454a-a309-1bba7be3c89f}, !- Handle
  {5e4e558b-99a6-44b9-a0eb-fc7887713719}, !- Construction Name
  ExteriorWall,                           !- Intended Surface Type
  ASHRAE 189.1-2009;                      !- Standards Construction Type

OS:Construction,
  {b3d0308a-c8f0-4d0c-b2fc-c6543e84903e}, !- Handle
  ASHRAE 189.1-2009 ExtWall Mass ClimateZone alt-res 8, !- Name