
OS:Version,
  {203fa708-0e9c-47d1-b29a-70ab75b5f844}, !- Handle
  1.3.0;                                  !- Version Identifier

OS:Construction,
  {f41dbe4f-0d30-4e2e-8e71-68c7d2487e2d}, !- Handle
  ASHRAE 189.1-2009 AtticFloor ClimateZone 1-8, !- Name
  ,                                       !- Surface Rendering Name
  {aadd6553-e9fb-457d-9703-35eea84a979f}, !- Layer 1
  {653c1060-d5ef-4ca2-9ee6-90978aaa71df}, !- Layer 2
  {aadd6553-e9fb-457d-9703-35eea84a979f}; !- Layer 3

OS:StandardsInformation:Construction,
  {d00a3f27-07bc-46bf-b7b6-2aac9f971c27}, !- Handle
  {f41dbe4f-0d30-4e2e-8e71-68c7d2487e2d}, !- Construction Name
  AtticFloor,                             !- Intended Surface Type
  WoodFramed;                             !- Standards Construction Type

OS:Material,
  {aadd6553-e9fb-457d-9703-35eea84a979f}, !- Handle
  1/2IN Gypsum,                           !- Name
  Smooth,                                 !- Roughness
  0.0127,                                 !- Thickness {m}
  0.16,                                   !- Conductivity {W/m-K}
  784.9,                                  !- Density {kg/m3}
  830.000000000001,                       !- Specific Heat {J/kg-K}
  0.9,                                    !- Thermal Absorptance
  0.92,                                   !- Solar Absorptance
  0.92;                                   !- Visible Absorptance

OS:Material,
  {653c1060-d5ef-4ca2-9ee6-90978aaa71df}, !- Handle
  AtticFloor Insulation,                  !- Name
  MediumRough,                            !- Roughness
  0.2379,                                 !- Thickness {m}
  0.049,                                  !- Conductivity {W/m-K}
  265,                                    !- Density {kg/m3}
  836.800000000001,                       !- Specific Heat {J/kg-K}
  0.9,                                    !- Thermal Absorptance
  0.7,                                    !- Solar Absorptance
  0.7;                                    !- Visible Absorptance

OS:Construction,
  {45228dee-11aa-41cd-9396-10909ef7b899}, !- Handle
  ASHRAE 189.1-2009 ExtRoof IEAD ClimateZone 1, !- Name
  ,                                       !- Surface Rendering Name
  {f6799a14-d731-4a8e-8cde-1c851bfd2ebf}, !- Layer 1
  {04318b4a-7ccd-4f45-af7d-418e06d84cff}, !- Layer 2
  {3cd61e69-24d6-4f98-b377-cc1a597e922c}; !- Layer 3

OS:StandardsInformation:Construction,
  {f5d1e504-8abe-40cb-acee-3bd48976c91e}, !- Handle
  {45228dee-11aa-41cd-9396-10909ef7b899}, !- Construction Name
  ExteriorRoof,                           !- Intended Surface Type
  IEAD;                                   !- Standards Construction Type

OS:Material,
  {f6799a14-d731-4a8e-8cde-1c851bfd2ebf}, !- Handle
  Roof Membrane,                          !- Name
  VeryRough,                              !- Roughness
  0.0095,                                 !- Thickness {m}
  0.16,                                   !- Conductivity {W/m-K}
  1121.29,                                !- Density {kg/m3}
  1460,                                   !- Specific Heat {J/kg-K}
  0.9,                                    !- Thermal Absorptance
  0.7,                                    !- Solar Absorptance
  0.7;                                    !- Visible Absorptance

OS:Material,
  {04318b4a-7ccd-4f45-af7d-418e06d84cff}, !- Handle
  Roof Insulation [18],                   !- Name
  MediumRough,                            !- Roughness
  0.1693,                                 !- Thickness {m}
  0.049,                                  !- Conductivity {W/m-K}
  265,                                    !- Density {kg/m3}
  836.800000000001,                       !- Specific Heat {J/kg-K}
  0.9,                                    !- Thermal Absorptance
  0.7,                                    !- Solar Absorptance
  0.7;                                    !- Visible Absorptance

OS:Material,
  {3cd61e69-24d6-4f98-b377-cc1a597e922c}, !- Handle
  Metal Decking,                          !- Name
  MediumSmooth,                           !- Roughness
  0.0015,                                 !- Thickness {m}
  45.006,                                 !- Conductivity {W/m-K}
  7680,                                   !- Density {kg/m3}
  418.4,                                  !- Specific Heat {J/kg-K}
  0.9,                                    !- Thermal Absorptance
  0.7,                                    !- Solar Absorptance
  0.3;                                    !- Visible Absorptance

OS:Construction,
  {f56636b5-b82d-41a4-99c0-52fec1ff18ea}, !- Handle
  ASHRAE 189.1-2009 ExtRoof IEAD ClimateZone 2-5, !- Name
  ,                                       !- Surface Rendering Name
  {f6799a14-d731-4a8e-8cde-1c851bfd2ebf}, !- Layer 1
  {199ca165-f2ec-4671-9fa8-7a5018422aaa}, !- Layer 2
  {3cd61e69-24d6-4f98-b377-cc1a597e922c}; !- Layer 3

OS:StandardsInformation:Construction,
  {31c372e3-be10-43a1-a9e7-60f8a5078cef}, !- Handle
  {f56636b5-b82d-41a4-99c0-52fec1ff18ea}, !- Construction Name
  ExteriorRoof,                           !- Intended Surface Type
  IEAD;                                   !- Standards Construction Type

OS:Material,
  {199ca165-f2ec-4671-9fa8-7a5018422aaa}, !- Handle
  Roof Insulation [21],                   !- Name
  MediumRough,                            !- Roughness
  0.2105,                                 !- Thickness {m}
  0.049,                                  !- Conductivity {W/m-K}
  265,                                    !- Density {kg/m3}
  836.800000000001,                       !- Specific Heat {J/kg-K}
  0.9,                                    !- Thermal Absorptance
  0.7,                                    !- Solar Absorptance
  0.7;                                    !- Visible Absorptance

OS:Construction,
  {2caaf8ca-7302-417a-a41a-2d4f8bfddae0}, !- Handle
  ASHRAE 189.1-2009 ExtRoof IEAD ClimateZone 6, !- Name
  ,                                       !- Surface Rendering Name
  {f6799a14-d731-4a8e-8cde-1c851bfd2ebf}, !- Layer 1
  {3458a6e1-b899-49ca-adf9-e210cab9d658}, !- Layer 2
  {3cd61e69-24d6-4f98-b377-cc1a597e922c}; !- Layer 3

OS:StandardsInformation:Construction,
  {97000dc8-6b13-440f-ae5f-277f5edc1dfd}, !- Handle
  {2caaf8ca-7302-417a-a41a-2d4f8bfddae0}, !- Construction Name
  ExteriorRoof,                           !- Intended Surface Type
  IEAD;                                   !- Standards Construction Type

OS:Material,
  {3458a6e1-b899-49ca-adf9-e210cab9d658}, !- Handle
  Roof Insulation [24],                   !- Name
  MediumRough,                            !- Roughness
  0.260100000000001,                      !- Thickness {m}
  0.049,                                  !- Conductivity {W/m-K}
  265,                                    !- Density {kg/m3}
  836.800000000001,                       !- Specific Heat {J/kg-K}
  0.9,                                    !- Thermal Absorptance
  0.7,                                    !- Solar Absorptance
  0.7;                                    !- Visible Absorptance

OS:Construction,
  {13ec6d99-4034-4bd0-a6a1-ddc8874b0752}, !- Handle
  ASHRAE 189.1-2009 ExtRoof IEAD ClimateZone 7-8, !- Name
  ,                                       !- Surface Rendering Name
  {f6799a14-d731-4a8e-8cde-1c851bfd2ebf}, !- Layer 1
  {6390226d-b560-494d-a692-c5029132ca22}, !- Layer 2
  {3cd61e69-24d6-4f98-b377-cc1a597e922c}; !- Layer 3

OS:StandardsInformation:Construction,
  {9b9a69be-7357-406f-b760-7f02331655e1}, !- Handle
  {13ec6d99-4034-4bd0-a6a1-ddc8874b0752}, !- Construction Name
  ExteriorRoof,                           !- Intended Surface Type
  IEAD;                                   !- Standards Construction Type

OS:Material,
  {6390226d-b560-494d-a692-c5029132ca22}, !- Handle
  Roof Insulation [26],                   !- Name
  MediumRough,                            !- Roughness
  0.2941,                                 !- Thickness {m}
  0.049,                                  !- Conductivity {W/m-K}
  265,                                    !- Density {kg/m3}
  836.800000000001,                       !- Specific Heat {J/kg-K}
  0.9,                                    !- Thermal Absorptance
  0.7,                                    !- Solar Absorptance
  0.7;                                    !- Visible Absorptance

OS:Construction,
  {91364865-ed22-49af-bf71-a1ca9da1b9ed}, !- Handle
  ASHRAE 189.1-2009 ExtRoof Metal ClimateZone 1, !- Name
  ,                                       !- Surface Rendering Name
  {a981eb52-9c5a-4225-ad65-ad32a7433ef4}, !- Layer 1
  {25b2b284-0fdd-411c-8afc-51a5bdaaa388}; !- Layer 2

OS:StandardsInformation:Construction,
  {5a5cd10d-9e89-4c4a-aeec-24a7b8eacec5}, !- Handle
  {91364865-ed22-49af-bf71-a1ca9da1b9ed}, !- Construction Name
  ExteriorRoof,                           !- Intended Surface Type
  Metal;                                  !- Standards Construction Type

OS:Material,
  {a981eb52-9c5a-4225-ad65-ad32a7433ef4}, !- Handle
  Metal Roofing,                          !- Name
  MediumSmooth,                           !- Roughness
  0.0015,                                 !- Thickness {m}
  45.006,                                 !- Conductivity {W/m-K}
  7680,                                   !- Density {kg/m3}
  418.4,                                  !- Specific Heat {J/kg-K}
  0.9,                                    !- Thermal Absorptance
  0.3,                                    !- Solar Absorptance
  0.3;                                    !- Visible Absorptance

OS:Material,
  {25b2b284-0fdd-411c-8afc-51a5bdaaa388}, !- Handle
  Roof Insulation [19],                   !- Name
  MediumRough,                            !- Roughness
  0.1868,                                 !- Thickness {m}
  0.049,                                  !- Conductivity {W/m-K}
  265,                                    !- Density {kg/m3}
  836.800000000001,                       !- Specific Heat {J/kg-K}
  0.9,                                    !- Thermal Absorptance
  0.7,                                    !- Solar Absorptance
  0.7;                                    !- Visible Absorptance

OS:Construction,
  {a721f752-d14d-434e-bb4f-72b841762925}, !- Handle
  ASHRAE 189.1-2009 ExtRoof Metal ClimateZone 2-5, !- Name
  ,                                       !- Surface Rendering Name
  {a981eb52-9c5a-4225-ad65-ad32a7433ef4}, !- Layer 1
  {653daeac-c882-4d96-8609-ff17397eadc3}; !- Layer 2

OS:StandardsInformation:Construction,
  {850e65b9-adc2-4460-b870-e36240247fc7}, !- Handle
  {a721f752-d14d-434e-bb4f-72b841762925}, !- Construction Name
  ExteriorRoof,                           !- Intended Surface Type
  Metal;                                  !- Standards Construction Type

OS:Material,
  {653daeac-c882-4d96-8609-ff17397eadc3}, !- Handle
  Roof Insulation [22],                   !- Name
  MediumRough,                            !- Roughness
  0.2358,                                 !- Thickness {m}
  0.049,                                  !- Conductivity {W/m-K}
  265,                                    !- Density {kg/m3}
  836.800000000001,                       !- Specific Heat {J/kg-K}
  0.9,                                    !- Thermal Absorptance
  0.7,                                    !- Solar Absorptance
  0.7;                                    !- Visible Absorptance

OS:Construction,
  {4f9fe0d5-5603-464c-8f66-3930f9ce85f8}, !- Handle
  ASHRAE 189.1-2009 ExtRoof Metal ClimateZone 6, !- Name
  ,                                       !- Surface Rendering Name
  {a981eb52-9c5a-4225-ad65-ad32a7433ef4}, !- Layer 1
  {bddaac0f-7550-47f5-82c3-48ba10f2a033}; !- Layer 2

OS:StandardsInformation:Construction,
  {7555dbdc-6305-46cb-81c2-e25e3d856a1d}, !- Handle
  {4f9fe0d5-5603-464c-8f66-3930f9ce85f8}, !- Construction Name
  ExteriorRoof,                           !- Intended Surface Type
  Metal;                                  !- Standards Construction Type

OS:Material,
  {bddaac0f-7550-47f5-82c3-48ba10f2a033}, !- Handle
  Roof Insulation [25],                   !- Name
  MediumRough,                            !- Roughness
  0.263,                                  !- Thickness {m}
  0.049,                                  !- Conductivity {W/m-K}
  265,                                    !- Density {kg/m3}
  836.800000000001,                       !- Specific Heat {J/kg-K}
  0.9,                                    !- Thermal Absorptance
  0.7,                                    !- Solar Absorptance
  0.7;                                    !- Visible Absorptance

OS:Construction,
  {55897066-3dfe-4e75-88a2-d5f5bdb09b7b}, !- Handle
  ASHRAE 189.1-2009 ExtRoof Metal ClimateZone 7-8, !- Name
  ,                                       !- Surface Rendering Name
  {a981eb52-9c5a-4225-ad65-ad32a7433ef4}, !- Layer 1
  {3e8d7a83-e395-4bd5-9f4c-4fc01040cf37}; !- Layer 2

OS:StandardsInformation:Construction,
  {c2b86905-4488-4dba-adf1-a1028089a401}, !- Handle
  {55897066-3dfe-4e75-88a2-d5f5bdb09b7b}, !- Construction Name
  ExteriorRoof,                           !- Intended Surface Type
  Metal;                                  !- Standards Construction Type

OS:Material,
  {3e8d7a83-e395-4bd5-9f4c-4fc01040cf37}, !- Handle
  Roof Insulation [27],                   !- Name
  MediumRough,                            !- Roughness
  0.297000000000001,                      !- Thickness {m}
  0.049,                                  !- Conductivity {W/m-K}
  265,                                    !- Density {kg/m3}
  836.800000000001,                       !- Specific Heat {J/kg-K}
  0.9,                                    !- Thermal Absorptance
  0.7,                                    !- Solar Absorptance
  0.7;                                    !- Visible Absorptance

OS:Construction,
  {2e8c69d4-ea82-4a69-9365-58ecd83df5a2}, !- Handle
  ASHRAE 189.1-2009 ExtWall Mass ClimateZone 1, !- Name
  ,                                       !- Surface Rendering Name
  {57e47346-1fbf-404f-8024-7e4ee2187a3f}, !- Layer 1
  {4f616e3a-61cc-4b08-8688-97b1ed1cd31f}, !- Layer 2
  {8103d756-ebad-40bd-bd8f-fccc589efc18}, !- Layer 3
  {aadd6553-e9fb-457d-9703-35eea84a979f}; !- Layer 4

OS:StandardsInformation:Construction,
  {991deb6b-848d-4677-9561-11df75b16566}, !- Handle
  {2e8c69d4-ea82-4a69-9365-58ecd83df5a2}, !- Construction Name
  ExteriorWall,                           !- Intended Surface Type
  Mass;                                   !- Standards Construction Type

OS:Material,
  {57e47346-1fbf-404f-8024-7e4ee2187a3f}, !- Handle
  1IN Stucco,                             !- Name
  Smooth,                                 !- Roughness
  0.0253,                                 !- Thickness {m}
  0.691799999999999,                      !- Conductivity {W/m-K}
  1858,                                   !- Density {kg/m3}
  836.999999999999,                       !- Specific Heat {J/kg-K}
  0.9,                                    !- Thermal Absorptance
  0.92,                                   !- Solar Absorptance
  0.92;                                   !- Visible Absorptance

OS:Material,
  {4f616e3a-61cc-4b08-8688-97b1ed1cd31f}, !- Handle
  8IN Concrete HW,                        !- Name
  MediumRough,                            !- Roughness
  0.2033,                                 !- Thickness {m}
  1.72959999999999,                       !- Conductivity {W/m-K}
  2242.99999999999,                       !- Density {kg/m3}
  836.999999999999,                       !- Specific Heat {J/kg-K}
  0.9,                                    !- Thermal Absorptance
  0.65,                                   !- Solar Absorptance
  0.65;                                   !- Visible Absorptance

OS:Material,
  {8103d756-ebad-40bd-bd8f-fccc589efc18}, !- Handle
  Wall Insulation [31],                   !- Name
  MediumRough,                            !- Roughness
  0.0337000000000001,                     !- Thickness {m}
  0.0432,                                 !- Conductivity {W/m-K}
  91,                                     !- Density {kg/m3}
  836.999999999999,                       !- Specific Heat {J/kg-K}
  0.9,                                    !- Thermal Absorptance
  0.5,                                    !- Solar Absorptance
  0.5;                                    !- Visible Absorptance

OS:Construction,
  {abe719a2-cf96-4ab1-934b-c782a980bfb4}, !- Handle
  ASHRAE 189.1-2009 ExtWall Mass ClimateZone 2, !- Name
  ,                                       !- Surface Rendering Name
  {57e47346-1fbf-404f-8024-7e4ee2187a3f}, !- Layer 1
  {4f616e3a-61cc-4b08-8688-97b1ed1cd31f}, !- Layer 2
  {c142f15e-f5c5-49bb-98ea-9fd8d1d3a658}, !- Layer 3
  {aadd6553-e9fb-457d-9703-35eea84a979f}; !- Layer 4

OS:StandardsInformation:Construction,
  {538f51f5-f5fd-4027-994a-50fc2373be3c}, !- Handle
  {abe719a2-cf96-4ab1-934b-c782a980bfb4}, !- Construction Name
  ExteriorWall,                           !- Intended Surface Type
  Mass;                                   !- Standards Construction Type

OS:Material,
  {c142f15e-f5c5-49bb-98ea-9fd8d1d3a658}, !- Handle
  Wall Insulation [35],                   !- Name
  MediumRough,                            !- Roughness
  0.0452,                                 !- Thickness {m}
  0.0432,                                 !- Conductivity {W/m-K}
  91,                                     !- Density {kg/m3}
  836.999999999999,                       !- Specific Heat {J/kg-K}
  0.9,                                    !- Thermal Absorptance
  0.5,                                    !- Solar Absorptance
  0.5;                                    !- Visible Absorptance

OS:Construction,
  {e03ca106-c40c-431f-b76d-114aab20d3fe}, !- Handle
  ASHRAE 189.1-2009 ExtWall Mass ClimateZone 3, !- Name
  ,                                       !- Surface Rendering Name
  {57e47346-1fbf-404f-8024-7e4ee2187a3f}, !- Layer 1
  {4f616e3a-61cc-4b08-8688-97b1ed1cd31f}, !- Layer 2
  {99cae437-4112-4882-89d1-85d60cb562dc}, !- Layer 3
  {aadd6553-e9fb-457d-9703-35eea84a979f}; !- Layer 4

OS:StandardsInformation:Construction,
  {c7840067-7f95-413d-9ec9-28da76beaf66}, !- Handle
  {e03ca106-c40c-431f-b76d-114aab20d3fe}, !- Construction Name
  ExteriorWall,                           !- Intended Surface Type
  Mass;                                   !- Standards Construction Type

OS:Material,
  {99cae437-4112-4882-89d1-85d60cb562dc}, !- Handle
  Wall Insulation [36],                   !- Name
  MediumRough,                            !- Roughness
  0.0565999999999999,                     !- Thickness {m}
  0.0432,                                 !- Conductivity {W/m-K}
  91,                                     !- Density {kg/m3}
  836.999999999999,                       !- Specific Heat {J/kg-K}
  0.9,                                    !- Thermal Absorptance
  0.5,                                    !- Solar Absorptance
  0.5;                                    !- Visible Absorptance

OS:Construction,
  {fa5bfced-c200-4207-967f-13e6d18212f4}, !- Handle
  ASHRAE 189.1-2009 ExtWall Mass ClimateZone 4, !- Name
  ,                                       !- Surface Rendering Name
  {57e47346-1fbf-404f-8024-7e4ee2187a3f}, !- Layer 1
  {4f616e3a-61cc-4b08-8688-97b1ed1cd31f}, !- Layer 2
  {f4a9b839-1ea3-451b-a128-6d412ffbcbc7}, !- Layer 3
  {aadd6553-e9fb-457d-9703-35eea84a979f}; !- Layer 4

OS:StandardsInformation:Construction,
  {e29ca78e-b7ad-4210-9e85-52ab0692a40b}, !- Handle
  {fa5bfced-c200-4207-967f-13e6d18212f4}, !- Construction Name
  ExteriorWall,                           !- Intended Surface Type
  Mass;                                   !- Standards Construction Type

OS:Material,
  {f4a9b839-1ea3-451b-a128-6d412ffbcbc7}, !- Handle
  Wall Insulation [37],                   !- Name
  MediumRough,                            !- Roughness
  0.0680999999999999,                     !- Thickness {m}
  0.0432,                                 !- Conductivity {W/m-K}
  91,                                     !- Density {kg/m3}
  836.999999999999,                       !- Specific Heat {J/kg-K}
  0.9,                                    !- Thermal Absorptance
  0.5,                                    !- Solar Absorptance
  0.5;                                    !- Visible Absorptance

OS:Construction,
  {c7de60d4-00db-4ac8-9e71-69f39a63c103}, !- Handle
  ASHRAE 189.1-2009 ExtWall Mass ClimateZone 5, !- Name
  ,                                       !- Surface Rendering Name
  {57e47346-1fbf-404f-8024-7e4ee2187a3f}, !- Layer 1
  {4f616e3a-61cc-4b08-8688-97b1ed1cd31f}, !- Layer 2
  {0a630a33-f199-458d-99fb-056b685d4970}, !- Layer 3
  {aadd6553-e9fb-457d-9703-35eea84a979f}; !- Layer 4

OS:StandardsInformation:Construction,
  {72ae6439-ea62-4ddb-81e4-3ffe41c71d2d}, !- Handle
  {c7de60d4-00db-4ac8-9e71-69f39a63c103}, !- Construction Name
  ExteriorWall,                           !- Intended Surface Type
  Mass;                                   !- Standards Construction Type

OS:Material,
  {0a630a33-f199-458d-99fb-056b685d4970}, !- Handle
  Wall Insulation [40],                   !- Name
  MediumRough,                            !- Roughness
  0.0793999999999999,                     !- Thickness {m}
  0.0432,                                 !- Conductivity {W/m-K}
  91,                                     !- Density {kg/m3}
  836.999999999999,                       !- Specific Heat {J/kg-K}
  0.9,                                    !- Thermal Absorptance
  0.5,                                    !- Solar Absorptance
  0.5;                                    !- Visible Absorptance

OS:Construction,
  {41fcddd1-fb7c-4600-aed9-ee8f70581dd8}, !- Handle
  ASHRAE 189.1-2009 ExtWall Mass ClimateZone 6, !- Name
  ,                                       !- Surface Rendering Name
  {57e47346-1fbf-404f-8024-7e4ee2187a3f}, !- Layer 1
  {4f616e3a-61cc-4b08-8688-97b1ed1cd31f}, !- Layer 2
  {c799e70b-29dd-4cdc-896c-827ad78356b7}, !- Layer 3
  {aadd6553-e9fb-457d-9703-35eea84a979f}; !- Layer 4

OS:StandardsInformation:Construction,
  {175fc107-822b-4d87-8a19-eb3422494fab}, !- Handle
  {41fcddd1-fb7c-4600-aed9-ee8f70581dd8}, !- Construction Name
  ExteriorWall,                           !- Intended Surface Type
  Mass;                                   !- Standards Construction Type

OS:Material,
  {c799e70b-29dd-4cdc-896c-827ad78356b7}, !- Handle
  Wall Insulation [42],                   !- Name
  MediumRough,                            !- Roughness
  0.0913999999999999,                     !- Thickness {m}
  0.0432,                                 !- Conductivity {W/m-K}
  91,                                     !- Density {kg/m3}
  836.999999999999,                       !- Specific Heat {J/kg-K}
  0.9,                                    !- Thermal Absorptance
  0.5,                                    !- Solar Absorptance
  0.5;                                    !- Visible Absorptance

OS:Construction,
  {6d6da8c7-40a9-4f2b-be32-bb9104fe57d3}, !- Handle
  ASHRAE 189.1-2009 ExtWall Mass ClimateZone 7-8, !- Name
  ,                                       !- Surface Rendering Name
  {57e47346-1fbf-404f-8024-7e4ee2187a3f}, !- Layer 1
  {4f616e3a-61cc-4b08-8688-97b1ed1cd31f}, !- Layer 2
  {eec4ff38-5f76-4a35-944b-8a7f8fdf5db5}, !- Layer 3
  {aadd6553-e9fb-457d-9703-35eea84a979f}; !- Layer 4

OS:StandardsInformation:Construction,
  {692c24ff-33ff-401c-9827-a9748009a7b0}, !- Handle
  {6d6da8c7-40a9-4f2b-be32-bb9104fe57d3}, !- Construction Name
  ExteriorWall,                           !- Intended Surface Type
  Mass;                                   !- Standards Construction Type

OS:Material,
  {eec4ff38-5f76-4a35-944b-8a7f8fdf5db5}, !- Handle
  Wall Insulation [44],                   !- Name
  MediumRough,                            !- Roughness
  0.1104,                                 !- Thickness {m}
  0.0432,                                 !- Conductivity {W/m-K}
  91,                                     !- Density {kg/m3}
  836.999999999999,                       !- Specific Heat {J/kg-K}
  0.9,                                    !- Thermal Absorptance
  0.5,                                    !- Solar Absorptance
  0.5;                                    !- Visible Absorptance

OS:Construction,
  {3574e374-ba6f-4b1f-b240-119eb94ecf94}, !- Handle
  ASHRAE 189.1-2009 ExtWall Mass ClimateZone alt-res 1, !- Name
  ,                                       !- Surface Rendering Name
  {57e47346-1fbf-404f-8024-7e4ee2187a3f}, !- Layer 1
  {4f616e3a-61cc-4b08-8688-97b1ed1cd31f}, !- Layer 2
  {c142f15e-f5c5-49bb-98ea-9fd8d1d3a658}, !- Layer 3
  {aadd6553-e9fb-457d-9703-35eea84a979f}; !- Layer 4

OS:StandardsInformation:Construction,
  {67213623-db54-42bf-8361-0eafa77bc179}, !- Handle
  {3574e374-ba6f-4b1f-b240-119eb94ecf94}, !- Construction Name
  ExteriorWall,                           !- Intended Surface Type
  Mass;                                   !- Standards Construction Type

OS:Construction,
  {e0057e4d-0dbb-4091-8c99-ae9aa2e1190a}, !- Handle
  ASHRAE 189.1-2009 ExtWall Mass ClimateZone alt-res 2, !- Name
  ,                                       !- Surface Rendering Name
  {57e47346-1fbf-404f-8024-7e4ee2187a3f}, !- Layer 1
  {4f616e3a-61cc-4b08-8688-97b1ed1cd31f}, !- Layer 2
  {99cae437-4112-4882-89d1-85d60cb562dc}, !- Layer 3
  {aadd6553-e9fb-457d-9703-35eea84a979f}; !- Layer 4

OS:StandardsInformation:Construction,
  {e2cc7b84-cde1-4eb2-9441-519f7b5b77a1}, !- Handle
  {e0057e4d-0dbb-4091-8c99-ae9aa2e1190a}, !- Construction Name
  ExteriorWall,                           !- Intended Surface Type
  Mass;                                   !- Standards Construction Type

OS:Construction,
  {a52de519-e79f-4338-a6d6-350c0fc00a25}, !- Handle
  ASHRAE 189.1-2009 ExtWall Mass ClimateZone alt-res 3, !- Name
  ,                                       !- Surface Rendering Name
  {57e47346-1fbf-404f-8024-7e4ee2187a3f}, !- Layer 1
  {4f616e3a-61cc-4b08-8688-97b1ed1cd31f}, !- Layer 2
  {f4a9b839-1ea3-451b-a128-6d412ffbcbc7}, !- Layer 3
  {aadd6553-e9fb-457d-9703-35eea84a979f}; !- Layer 4

OS:StandardsInformation:Construction,
  {2f6ee143-9a58-4412-87e7-e3dfd6b6635d}, !- Handle
  {a52de519-e79f-4338-a6d6-350c0fc00a25}, !- Construction Name
  ExteriorWall,                           !- Intended Surface Type
  Mass;                                   !- Standards Construction Type

OS:Construction,
  {c9ada7d2-4fea-495d-853c-33e5708e9deb}, !- Handle
  ASHRAE 189.1-2009 ExtWall Mass ClimateZone alt-res 4, !- Name
  ,                                       !- Surface Rendering Name
  {57e47346-1fbf-404f-8024-7e4ee2187a3f}, !- Layer 1
  {4f616e3a-61cc-4b08-8688-97b1ed1cd31f}, !- Layer 2
  {0a630a33-f199-458d-99fb-056b685d4970}, !- Layer 3
  {aadd6553-e9fb-457d-9703-35eea84a979f}; !- Layer 4

OS:StandardsInformation:Construction,
  {f0e6c9e1-c301-44b3-9f73-2fb30879b677}, !- Handle
  {c9ada7d2-4fea-495d-853c-33e5708e9deb}, !- Construction Name
  ExteriorWall,                           !- Intended Surface Type
  Mass;                                   !- Standards Construction Type

OS:Construction,
  {f49c5453-8eed-4a4a-9623-b1dbd7b55d22}, !- Handle
  ASHRAE 189.1-2009 ExtWall Mass ClimateZone alt-res 5, !- Name
  ,                                       !- Surface Rendering Name
  {57e47346-1fbf-404f-8024-7e4ee2187a3f}, !- Layer 1
  {4f616e3a-61cc-4b08-8688-97b1ed1cd31f}, !- Layer 2
  {c799e70b-29dd-4cdc-896c-827ad78356b7}, !- Layer 3
  {aadd6553-e9fb-457d-9703-35eea84a979f}; !- Layer 4

OS:StandardsInformation:Construction,
  {4c79c233-48cc-43e5-85fc-b5146d945036}, !- Handle
  {f49c5453-8eed-4a4a-9623-b1dbd7b55d22}, !- Construction Name
  ExteriorWall,                           !- Intended Surface Type
  Mass;                                   !- Standards Construction Type

OS:Construction,
  {4c0a271a-1eca-42c2-8c61-9bd806fc91f4}, !- Handle
  ASHRAE 189.1-2009 ExtWall Mass ClimateZone alt-res 6, !- Name
  ,                                       !- Surface Rendering Name
  {57e47346-1fbf-404f-8024-7e4ee2187a3f}, !- Layer 1
  {4f616e3a-61cc-4b08-8688-97b1ed1cd31f}, !- Layer 2
  {eec4ff38-5f76-4a35-944b-8a7f8fdf5db5}, !- Layer 3
  {aadd6553-e9fb-457d-9703-35eea84a979f}; !- Layer 4

OS:StandardsInformation:Construction,
  {9057e681-ec5b-4063-860e-4fc2d35eca42}, !- Handle
  {4c0a271a-1eca-42c2-8c61-9bd806fc91f4}, !- Construction Name
  ExteriorWall,                           !- Intended Surface Type
  Mass;                                   !- Standards Construction Type

OS:Construction,
  {7d880c8a-4c0f-47c5-be24-965faa6ef92e}, !- Handle
  ASHRAE 189.1-2009 ExtWall Mass ClimateZone alt-res 7, !- Name
  ,                                       !- Surface Rendering Name
  {57e47346-1fbf-404f-8024-7e4ee2187a3f}, !- Layer 1
  {4f616e3a-61cc-4b08-8688-97b1ed1cd31f}, !- Layer 2
  {eec4ff38-5f76-4a35-944b-8a7f8fdf5db5}, !- Layer 3
  {aadd6553-e9fb-457d-9703-35eea84a979f}; !- Layer 4

OS:StandardsInformation:Construction,
  {c71f41ed-df9a-4ea3-9877-771aeca385ef}, !- Handle
  {7d880c8a-4c0f-47c5-be24-965faa6ef92e}, !- Construction Name
  ExteriorWall,                           !- Intended Surface Type
  Mass;                                   !- Standards Construction Type

OS:Construction,
  {a3efa5a5-54a8-4116-86e3-85147c4443eb}, !- Handle
  ASHRAE 189.1-2009 ExtWall Mass ClimateZone alt-res 8, !- Name
  ,                                       !- Surface Rendering Name
  {57e47346-1fbf-404f-8024-7e4ee2187a3f}, !- Layer 1
  {4f616e3a-61cc-4b08-8688-97b1ed1cd31f}, !- Layer 2
  {a8989324-7cb3-488a-b47d-7fd14ca0da21}, !- Layer 3
  {aadd6553-e9fb-457d-9703-35eea84a979f}; !- Layer 4

OS:StandardsInformation:Construction,
  {caf208e1-c01a-4a1f-bd64-23ea0d1798e9}, !- Handle
  {a3efa5a5-54a8-4116-86e3-85147c4443eb}, !- Construction Name
  ExteriorWall,                           !- Intended Surface Type
  Mass;                                   !- Standards Construction Type

OS:Material,
  {a8989324-7cb3-488a-b47d-7fd14ca0da21}, !- Handle