
OS:Version,
  {8f7786bf-0e55-4dec-b585-b235d76d36d8}, !- Handle
  1.2.3;                                  !- Version Identifier

OS:Construction,
  {1fe77b3e-5e6f-4609-8635-67f9ed366635}, !- Handle
  ASHRAE 189.1-2009 AtticFloor ClimateZone 1-8, !- Name
  ,                                       !- Surface Rendering Name
  {07c4f534-ff5e-4548-a390-9bfecdd7a7a4}, !- Layer 1
  {e939a01a-d509-452e-8161-54190e8433b9}, !- Layer 2
  {07c4f534-ff5e-4548-a390-9bfecdd7a7a4}; !- Layer 3

OS:StandardsInformation:Construction,
  {f8c26aaf-30b0-47e6-a163-ecd7a9e0c804}, !- Handle
  {1fe77b3e-5e6f-4609-8635-67f9ed366635}, !- Construction Name
  AtticFloor,                             !- Intended Surface Type
  WoodFramed;                             !- Standards Construction Type

OS:Material,
  {07c4f534-ff5e-4548-a390-9bfecdd7a7a4}, !- Handle
  1/2IN Gypsum,                           !- Name
  Smooth,                                 !- Roughness
  0.0127,                                 !- Thickness {m}
  0.16,                                   !- Conductivity {W/m-K}
  784.9,                                  !- Density {kg/m3}
  830.000000000001,                       !- Specific Heat {J/kg-K}
  0.9,                                    !- Thermal Absorptance
  0.92,                                   !- Solar Absorptance
  0.92;                                   !- Visible Absorptance

OS:Material,
  {e939a01a-d509-452e-8161-54190e8433b9}, !- Handle
  AtticFloor Insulation,                  !- Name
  MediumRough,                            !- Roughness
  0.2379,                                 !- Thickness {m}
  0.049,                                  !- Conductivity {W/m-K}
  265,                                    !- Density {kg/m3}
  836.800000000001,                       !- Specific Heat {J/kg-K}
  0.9,                                    !- Thermal Absorptance
  0.7,                                    !- Solar Absorptance
  0.7;                                    !- Visible Absorptance

OS:Construction,
  {9fce4eb7-8a9b-4828-bd85-2cf2d6187a50}, !- Handle
  ASHRAE 189.1-2009 ExtRoof IEAD ClimateZone 1, !- Name
  ,                                       !- Surface Rendering Name
  {7c69b66a-c2f6-4f2c-b853-c23ca467c694}, !- Layer 1
  {a61af215-a823-49c4-a375-4326e7808ff1}, !- Layer 2
  {099d702a-9a28-4eb2-97aa-365f92fe6040}; !- Layer 3

OS:StandardsInformation:Construction,
  {f8d439e8-0ae5-46a1-85ab-aba79ccd18f9}, !- Handle
  {9fce4eb7-8a9b-4828-bd85-2cf2d6187a50}, !- Construction Name
  ExteriorRoof,                           !- Intended Surface Type
  IEAD;                                   !- Standards Construction Type

OS:Material,
  {7c69b66a-c2f6-4f2c-b853-c23ca467c694}, !- Handle
  Roof Membrane,                          !- Name
  VeryRough,                              !- Roughness
  0.0095,                                 !- Thickness {m}
  0.16,                                   !- Conductivity {W/m-K}
  1121.29,                                !- Density {kg/m3}
  1460,                                   !- Specific Heat {J/kg-K}
  0.9,                                    !- Thermal Absorptance
  0.7,                                    !- Solar Absorptance
  0.7;                                    !- Visible Absorptance

OS:Material,
  {a61af215-a823-49c4-a375-4326e7808ff1}, !- Handle
  Roof Insulation [18],                   !- Name
  MediumRough,                            !- Roughness
  0.1693,                                 !- Thickness {m}
  0.049,                                  !- Conductivity {W/m-K}
  265,                                    !- Density {kg/m3}
  836.800000000001,                       !- Specific Heat {J/kg-K}
  0.9,                                    !- Thermal Absorptance
  0.7,                                    !- Solar Absorptance
  0.7;                                    !- Visible Absorptance

OS:Material,
  {099d702a-9a28-4eb2-97aa-365f92fe6040}, !- Handle
  Metal Decking,                          !- Name
  MediumSmooth,                           !- Roughness
  0.0015,                                 !- Thickness {m}
  45.006,                                 !- Conductivity {W/m-K}
  7680,                                   !- Density {kg/m3}
  418.4,                                  !- Specific Heat {J/kg-K}
  0.9,                                    !- Thermal Absorptance
  0.7,                                    !- Solar Absorptance
  0.3;                                    !- Visible Absorptance

OS:Construction,
  {40423ff5-91af-46ea-90a8-e66646ec8337}, !- Handle
  ASHRAE 189.1-2009 ExtRoof IEAD ClimateZone 2-5, !- Name
  ,                                       !- Surface Rendering Name
  {7c69b66a-c2f6-4f2c-b853-c23ca467c694}, !- Layer 1
  {bcb8bb3e-6995-4ffe-93dd-0ab66e3aec20}, !- Layer 2
  {099d702a-9a28-4eb2-97aa-365f92fe6040}; !- Layer 3

OS:StandardsInformation:Construction,
  {65e9ba74-215c-498c-a7ec-8768599f62fe}, !- Handle
  {40423ff5-91af-46ea-90a8-e66646ec8337}, !- Construction Name
  ExteriorRoof,                           !- Intended Surface Type
  IEAD;                                   !- Standards Construction Type

OS:Material,
  {bcb8bb3e-6995-4ffe-93dd-0ab66e3aec20}, !- Handle
  Roof Insulation [21],                   !- Name
  MediumRough,                            !- Roughness
  0.2105,                                 !- Thickness {m}
  0.049,                                  !- Conductivity {W/m-K}
  265,                                    !- Density {kg/m3}
  836.800000000001,                       !- Specific Heat {J/kg-K}
  0.9,                                    !- Thermal Absorptance
  0.7,                                    !- Solar Absorptance
  0.7;                                    !- Visible Absorptance

OS:Construction,
  {e5522a8e-4aaa-4ab0-9c6f-eea33a3d42ec}, !- Handle
  ASHRAE 189.1-2009 ExtRoof IEAD ClimateZone 6, !- Name
  ,                                       !- Surface Rendering Name
  {7c69b66a-c2f6-4f2c-b853-c23ca467c694}, !- Layer 1
  {c6a3fa04-71b9-4b26-9c40-27858e43107a}, !- Layer 2
  {099d702a-9a28-4eb2-97aa-365f92fe6040}; !- Layer 3

OS:StandardsInformation:Construction,
  {c3495ea2-51e7-4998-8b2d-7e091705eba1}, !- Handle
  {e5522a8e-4aaa-4ab0-9c6f-eea33a3d42ec}, !- Construction Name
  ExteriorRoof,                           !- Intended Surface Type
  IEAD;                                   !- Standards Construction Type

OS:Material,
  {c6a3fa04-71b9-4b26-9c40-27858e43107a}, !- Handle
  Roof Insulation [24],                   !- Name
  MediumRough,                            !- Roughness
  0.260100000000001,                      !- Thickness {m}
  0.049,                                  !- Conductivity {W/m-K}
  265,                                    !- Density {kg/m3}
  836.800000000001,                       !- Specific Heat {J/kg-K}
  0.9,                                    !- Thermal Absorptance
  0.7,                                    !- Solar Absorptance
  0.7;                                    !- Visible Absorptance

OS:Construction,
  {26e1263a-b205-4625-8cd1-3826068a02e1}, !- Handle
  ASHRAE 189.1-2009 ExtRoof IEAD ClimateZone 7-8, !- Name
  ,                                       !- Surface Rendering Name
  {7c69b66a-c2f6-4f2c-b853-c23ca467c694}, !- Layer 1
  {24b30bd1-e7f6-4dab-849e-adef20118e85}, !- Layer 2
  {099d702a-9a28-4eb2-97aa-365f92fe6040}; !- Layer 3

OS:StandardsInformation:Construction,
  {c383fb29-f6be-4811-987e-5ad838ed4be3}, !- Handle
  {26e1263a-b205-4625-8cd1-3826068a02e1}, !- Construction Name
  ExteriorRoof,                           !- Intended Surface Type
  IEAD;                                   !- Standards Construction Type

OS:Material,
  {24b30bd1-e7f6-4dab-849e-adef20118e85}, !- Handle
  Roof Insulation [26],                   !- Name
  MediumRough,                            !- Roughness
  0.2941,                                 !- Thickness {m}
  0.049,                                  !- Conductivity {W/m-K}
  265,                                    !- Density {kg/m3}
  836.800000000001,                       !- Specific Heat {J/kg-K}
  0.9,                                    !- Thermal Absorptance
  0.7,                                    !- Solar Absorptance
  0.7;                                    !- Visible Absorptance

OS:Construction,
  {7df194ee-1394-4965-9561-533c04e9f642}, !- Handle
  ASHRAE 189.1-2009 ExtRoof Metal ClimateZone 1, !- Name
  ,                                       !- Surface Rendering Name
  {bcb690a9-2cd7-4412-9555-31d301d45553}, !- Layer 1
  {654e9ccd-edda-4acd-9321-278a463a0b66}; !- Layer 2

OS:StandardsInformation:Construction,
  {b328a537-a188-4917-a3ae-2be8bf389107}, !- Handle
  {7df194ee-1394-4965-9561-533c04e9f642}, !- Construction Name
  ExteriorRoof,                           !- Intended Surface Type
  Metal;                                  !- Standards Construction Type

OS:Material,
  {bcb690a9-2cd7-4412-9555-31d301d45553}, !- Handle
  Metal Roofing,                          !- Name
  MediumSmooth,                           !- Roughness
  0.0015,                                 !- Thickness {m}
  45.006,                                 !- Conductivity {W/m-K}
  7680,                                   !- Density {kg/m3}
  418.4,                                  !- Specific Heat {J/kg-K}
  0.9,                                    !- Thermal Absorptance
  0.3,                                    !- Solar Absorptance
  0.3;                                    !- Visible Absorptance

OS:Material,
  {654e9ccd-edda-4acd-9321-278a463a0b66}, !- Handle
  Roof Insulation [19],                   !- Name
  MediumRough,                            !- Roughness
  0.1868,                                 !- Thickness {m}
  0.049,                                  !- Conductivity {W/m-K}
  265,                                    !- Density {kg/m3}
  836.800000000001,                       !- Specific Heat {J/kg-K}
  0.9,                                    !- Thermal Absorptance
  0.7,                                    !- Solar Absorptance
  0.7;                                    !- Visible Absorptance

OS:Construction,
  {cd71e181-5519-4a84-9921-0ae5335be076}, !- Handle
  ASHRAE 189.1-2009 ExtRoof Metal ClimateZone 2-5, !- Name
  ,                                       !- Surface Rendering Name
  {bcb690a9-2cd7-4412-9555-31d301d45553}, !- Layer 1
  {31106193-76ac-43dc-921d-e99de8ea8ad6}; !- Layer 2

OS:StandardsInformation:Construction,
  {4d1f0860-65bd-4c8c-aa17-7105c55e2420}, !- Handle
  {cd71e181-5519-4a84-9921-0ae5335be076}, !- Construction Name
  ExteriorRoof,                           !- Intended Surface Type
  Metal;                                  !- Standards Construction Type

OS:Material,
  {31106193-76ac-43dc-921d-e99de8ea8ad6}, !- Handle
  Roof Insulation [22],                   !- Name
  MediumRough,                            !- Roughness
  0.2358,                                 !- Thickness {m}
  0.049,                                  !- Conductivity {W/m-K}
  265,                                    !- Density {kg/m3}
  836.800000000001,                       !- Specific Heat {J/kg-K}
  0.9,                                    !- Thermal Absorptance
  0.7,                                    !- Solar Absorptance
  0.7;                                    !- Visible Absorptance

OS:Construction,
  {1121e00e-3744-42ac-9e5e-5f0dbe9de576}, !- Handle
  ASHRAE 189.1-2009 ExtRoof Metal ClimateZone 6, !- Name
  ,                                       !- Surface Rendering Name
  {bcb690a9-2cd7-4412-9555-31d301d45553}, !- Layer 1
  {727299af-353d-44a7-87a0-2fa17d993948}; !- Layer 2

OS:StandardsInformation:Construction,
  {a13ddbb1-ee8b-45da-9336-794807f72054}, !- Handle
  {1121e00e-3744-42ac-9e5e-5f0dbe9de576}, !- Construction Name
  ExteriorRoof,                           !- Intended Surface Type
  Metal;                                  !- Standards Construction Type

OS:Material,
  {727299af-353d-44a7-87a0-2fa17d993948}, !- Handle
  Roof Insulation [25],                   !- Name
  MediumRough,                            !- Roughness
  0.263,                                  !- Thickness {m}
  0.049,                                  !- Conductivity {W/m-K}
  265,                                    !- Density {kg/m3}
  836.800000000001,                       !- Specific Heat {J/kg-K}
  0.9,                                    !- Thermal Absorptance
  0.7,                                    !- Solar Absorptance
  0.7;                                    !- Visible Absorptance

OS:Construction,
  {11cf92b6-9ac5-4c1e-afa3-a63c4fbd9598}, !- Handle
  ASHRAE 189.1-2009 ExtRoof Metal ClimateZone 7-8, !- Name
  ,                                       !- Surface Rendering Name
  {bcb690a9-2cd7-4412-9555-31d301d45553}, !- Layer 1
  {3e1d0b2e-3eba-428b-9a85-1f79d523f1a3}; !- Layer 2

OS:StandardsInformation:Construction,
  {2c3f5b4e-c4e2-44a5-a0f7-1eb75d5a169a}, !- Handle
  {11cf92b6-9ac5-4c1e-afa3-a63c4fbd9598}, !- Construction Name
  ExteriorRoof,                           !- Intended Surface Type
  Metal;                                  !- Standards Construction Type

OS:Material,
  {3e1d0b2e-3eba-428b-9a85-1f79d523f1a3}, !- Handle
  Roof Insulation [27],                   !- Name
  MediumRough,                            !- Roughness
  0.297000000000001,                      !- Thickness {m}
  0.049,                                  !- Conductivity {W/m-K}
  265,                                    !- Density {kg/m3}
  836.800000000001,                       !- Specific Heat {J/kg-K}
  0.9,                                    !- Thermal Absorptance
  0.7,                                    !- Solar Absorptance
  0.7;                                    !- Visible Absorptance

OS:Construction,
  {d8b17281-db32-45ab-b7a1-d794adfa4d26}, !- Handle
  ASHRAE 189.1-2009 ExtWall Mass ClimateZone 1, !- Name
  ,                                       !- Surface Rendering Name
  {f1903c5e-40a3-421b-a8b5-d53eaa71d82b}, !- Layer 1
  {6031fb6d-0777-44db-a3d8-07a38b2fe490}, !- Layer 2
  {08729f82-e307-4e98-b80a-eb954dedb9a0}, !- Layer 3
  {07c4f534-ff5e-4548-a390-9bfecdd7a7a4}; !- Layer 4

OS:StandardsInformation:Construction,
  {c5126ff6-0b8e-495c-8942-741aef931f04}, !- Handle
  {d8b17281-db32-45ab-b7a1-d794adfa4d26}, !- Construction Name
  ExteriorWall,                           !- Intended Surface Type
  Mass;                                   !- Standards Construction Type

OS:Material,
  {f1903c5e-40a3-421b-a8b5-d53eaa71d82b}, !- Handle
  1IN Stucco,                             !- Name
  Smooth,                                 !- Roughness
  0.0253,                                 !- Thickness {m}
  0.691799999999999,                      !- Conductivity {W/m-K}
  1858,                                   !- Density {kg/m3}
  836.999999999999,                       !- Specific Heat {J/kg-K}
  0.9,                                    !- Thermal Absorptance
  0.92,                                   !- Solar Absorptance
  0.92;                                   !- Visible Absorptance

OS:Material,
  {6031fb6d-0777-44db-a3d8-07a38b2fe490}, !- Handle
  8IN Concrete HW,                        !- Name
  MediumRough,                            !- Roughness
  0.2033,                                 !- Thickness {m}
  1.72959999999999,                       !- Conductivity {W/m-K}
  2242.99999999999,                       !- Density {kg/m3}
  836.999999999999,                       !- Specific Heat {J/kg-K}
  0.9,                                    !- Thermal Absorptance
  0.65,                                   !- Solar Absorptance
  0.65;                                   !- Visible Absorptance

OS:Material,
  {08729f82-e307-4e98-b80a-eb954dedb9a0}, !- Handle
  Wall Insulation [31],                   !- Name
  MediumRough,                            !- Roughness
  0.0337000000000001,                     !- Thickness {m}
  0.0432,                                 !- Conductivity {W/m-K}
  91,                                     !- Density {kg/m3}
  836.999999999999,                       !- Specific Heat {J/kg-K}
  0.9,                                    !- Thermal Absorptance
  0.5,                                    !- Solar Absorptance
  0.5;                                    !- Visible Absorptance

OS:Construction,
  {f20f4dcf-4a82-4d9c-acb5-dc8629f2b021}, !- Handle
  ASHRAE 189.1-2009 ExtWall Mass ClimateZone 2, !- Name
  ,                                       !- Surface Rendering Name
  {f1903c5e-40a3-421b-a8b5-d53eaa71d82b}, !- Layer 1
  {6031fb6d-0777-44db-a3d8-07a38b2fe490}, !- Layer 2
  {ec1f071f-7b04-475f-a185-9df502b993f4}, !- Layer 3
  {07c4f534-ff5e-4548-a390-9bfecdd7a7a4}; !- Layer 4

OS:StandardsInformation:Construction,
  {42377ac8-6714-4ff4-bd87-61d3de40b35c}, !- Handle
  {f20f4dcf-4a82-4d9c-acb5-dc8629f2b021}, !- Construction Name
  ExteriorWall,                           !- Intended Surface Type
  Mass;                                   !- Standards Construction Type

OS:Material,
  {ec1f071f-7b04-475f-a185-9df502b993f4}, !- Handle
  Wall Insulation [35],                   !- Name
  MediumRough,                            !- Roughness
  0.0452,                                 !- Thickness {m}
  0.0432,                                 !- Conductivity {W/m-K}
  91,                                     !- Density {kg/m3}
  836.999999999999,                       !- Specific Heat {J/kg-K}
  0.9,                                    !- Thermal Absorptance
  0.5,                                    !- Solar Absorptance
  0.5;                                    !- Visible Absorptance

OS:Construction,
  {3dd81ab5-8f62-4162-ae75-2baf38f700b3}, !- Handle
  ASHRAE 189.1-2009 ExtWall Mass ClimateZone 3, !- Name
  ,                                       !- Surface Rendering Name
  {f1903c5e-40a3-421b-a8b5-d53eaa71d82b}, !- Layer 1
  {6031fb6d-0777-44db-a3d8-07a38b2fe490}, !- Layer 2
  {ae9e116d-3136-4874-8b3a-66e9f1fefcbe}, !- Layer 3
  {07c4f534-ff5e-4548-a390-9bfecdd7a7a4}; !- Layer 4

OS:StandardsInformation:Construction,
  {f19bff15-86ae-4b7d-b28c-734073c625ea}, !- Handle
  {3dd81ab5-8f62-4162-ae75-2baf38f700b3}, !- Construction Name
  ExteriorWall,                           !- Intended Surface Type
  Mass;                                   !- Standards Construction Type

OS:Material,
  {ae9e116d-3136-4874-8b3a-66e9f1fefcbe}, !- Handle
  Wall Insulation [36],                   !- Name
  MediumRough,                            !- Roughness
  0.0565999999999999,                     !- Thickness {m}
  0.0432,                                 !- Conductivity {W/m-K}
  91,                                     !- Density {kg/m3}
  836.999999999999,                       !- Specific Heat {J/kg-K}
  0.9,                                    !- Thermal Absorptance
  0.5,                                    !- Solar Absorptance
  0.5;                                    !- Visible Absorptance

OS:Construction,
  {21803739-0c08-4e94-b6cf-3abdb55e50b4}, !- Handle
  ASHRAE 189.1-2009 ExtWall Mass ClimateZone 4, !- Name
  ,                                       !- Surface Rendering Name
  {f1903c5e-40a3-421b-a8b5-d53eaa71d82b}, !- Layer 1
  {6031fb6d-0777-44db-a3d8-07a38b2fe490}, !- Layer 2
  {4864384b-cd1e-4346-9e59-74460c3b6bff}, !- Layer 3
  {07c4f534-ff5e-4548-a390-9bfecdd7a7a4}; !- Layer 4

OS:StandardsInformation:Construction,
  {64ed94d8-eee0-4274-be90-39c48f4403c5}, !- Handle
  {21803739-0c08-4e94-b6cf-3abdb55e50b4}, !- Construction Name
  ExteriorWall,                           !- Intended Surface Type
  Mass;                                   !- Standards Construction Type

OS:Material,
  {4864384b-cd1e-4346-9e59-74460c3b6bff}, !- Handle
  Wall Insulation [37],                   !- Name
  MediumRough,                            !- Roughness
  0.0680999999999999,                     !- Thickness {m}
  0.0432,                                 !- Conductivity {W/m-K}
  91,                                     !- Density {kg/m3}
  836.999999999999,                       !- Specific Heat {J/kg-K}
  0.9,                                    !- Thermal Absorptance
  0.5,                                    !- Solar Absorptance
  0.5;                                    !- Visible Absorptance

OS:Construction,
  {531b06e5-4966-4c4c-82e8-e7f352793923}, !- Handle
  ASHRAE 189.1-2009 ExtWall Mass ClimateZone 5, !- Name
  ,                                       !- Surface Rendering Name
  {f1903c5e-40a3-421b-a8b5-d53eaa71d82b}, !- Layer 1
  {6031fb6d-0777-44db-a3d8-07a38b2fe490}, !- Layer 2
  {f67ea8fd-8aa8-44cd-9a89-4e78b3525028}, !- Layer 3
  {07c4f534-ff5e-4548-a390-9bfecdd7a7a4}; !- Layer 4

OS:StandardsInformation:Construction,
  {4300c6b5-ab9c-4c7c-a98b-6696210b8901}, !- Handle
  {531b06e5-4966-4c4c-82e8-e7f352793923}, !- Construction Name
  ExteriorWall,                           !- Intended Surface Type
  Mass;                                   !- Standards Construction Type

OS:Material,
  {f67ea8fd-8aa8-44cd-9a89-4e78b3525028}, !- Handle
  Wall Insulation [40],                   !- Name
  MediumRough,                            !- Roughness
  0.0793999999999999,                     !- Thickness {m}
  0.0432,                                 !- Conductivity {W/m-K}
  91,                                     !- Density {kg/m3}
  836.999999999999,                       !- Specific Heat {J/kg-K}
  0.9,                                    !- Thermal Absorptance
  0.5,                                    !- Solar Absorptance
  0.5;                                    !- Visible Absorptance

OS:Construction,
  {4d151e61-c6b2-447a-a9fb-f3fd5384c5db}, !- Handle
  ASHRAE 189.1-2009 ExtWall Mass ClimateZone 6, !- Name
  ,                                       !- Surface Rendering Name
  {f1903c5e-40a3-421b-a8b5-d53eaa71d82b}, !- Layer 1
  {6031fb6d-0777-44db-a3d8-07a38b2fe490}, !- Layer 2
  {4e7c0ed5-34eb-4b36-9266-c25cac6bebbb}, !- Layer 3
  {07c4f534-ff5e-4548-a390-9bfecdd7a7a4}; !- Layer 4

OS:StandardsInformation:Construction,
  {86bad3f8-9f11-4ef1-bbcf-a934b3475410}, !- Handle
  {4d151e61-c6b2-447a-a9fb-f3fd5384c5db}, !- Construction Name
  ExteriorWall,                           !- Intended Surface Type
  Mass;                                   !- Standards Construction Type

OS:Material,
  {4e7c0ed5-34eb-4b36-9266-c25cac6bebbb}, !- Handle
  Wall Insulation [42],                   !- Name
  MediumRough,                            !- Roughness
  0.0913999999999999,                     !- Thickness {m}
  0.0432,                                 !- Conductivity {W/m-K}
  91,                                     !- Density {kg/m3}
  836.999999999999,                       !- Specific Heat {J/kg-K}
  0.9,                                    !- Thermal Absorptance
  0.5,                                    !- Solar Absorptance
  0.5;                                    !- Visible Absorptance

OS:Construction,
  {a465b3a3-49f8-4271-9188-12fb1d5c18b4}, !- Handle
  ASHRAE 189.1-2009 ExtWall Mass ClimateZone 7-8, !- Name
  ,                                       !- Surface Rendering Name
  {f1903c5e-40a3-421b-a8b5-d53eaa71d82b}, !- Layer 1
  {6031fb6d-0777-44db-a3d8-07a38b2fe490}, !- Layer 2
  {1ba31e53-634a-48c6-94ab-2e94e5058ef7}, !- Layer 3
  {07c4f534-ff5e-4548-a390-9bfecdd7a7a4}; !- Layer 4

OS:StandardsInformation:Construction,
  {c0dcd4ff-f296-4ae4-834f-f5f54e014fbd}, !- Handle
  {a465b3a3-49f8-4271-9188-12fb1d5c18b4}, !- Construction Name
  ExteriorWall,                           !- Intended Surface Type
  Mass;                                   !- Standards Construction Type

OS:Material,
  {1ba31e53-634a-48c6-94ab-2e94e5058ef7}, !- Handle
  Wall Insulation [44],                   !- Name
  MediumRough,                            !- Roughness
  0.1104,                                 !- Thickness {m}
  0.0432,                                 !- Conductivity {W/m-K}
  91,                                     !- Density {kg/m3}
  836.999999999999,                       !- Specific Heat {J/kg-K}
  0.9,                                    !- Thermal Absorptance
  0.5,                                    !- Solar Absorptance
  0.5;                                    !- Visible Absorptance

OS:Construction,
  {ad208694-6e58-4888-b46c-aca8c05c8335}, !- Handle
  ASHRAE 189.1-2009 ExtWall Mass ClimateZone alt-res 1, !- Name
  ,                                       !- Surface Rendering Name
  {f1903c5e-40a3-421b-a8b5-d53eaa71d82b}, !- Layer 1
  {6031fb6d-0777-44db-a3d8-07a38b2fe490}, !- Layer 2
  {ec1f071f-7b04-475f-a185-9df502b993f4}, !- Layer 3
  {07c4f534-ff5e-4548-a390-9bfecdd7a7a4}; !- Layer 4

OS:StandardsInformation:Construction,
  {0f400e90-3989-4474-b0e0-d8963a246701}, !- Handle
  {ad208694-6e58-4888-b46c-aca8c05c8335}, !- Construction Name
  ExteriorWall,                           !- Intended Surface Type
  Mass;                                   !- Standards Construction Type

OS:Construction,
  {c661b0d8-4f83-476e-ac04-3fc9a4daa32c}, !- Handle
  ASHRAE 189.1-2009 ExtWall Mass ClimateZone alt-res 2, !- Name
  ,                                       !- Surface Rendering Name
  {f1903c5e-40a3-421b-a8b5-d53eaa71d82b}, !- Layer 1
  {6031fb6d-0777-44db-a3d8-07a38b2fe490}, !- Layer 2
  {ae9e116d-3136-4874-8b3a-66e9f1fefcbe}, !- Layer 3
  {07c4f534-ff5e-4548-a390-9bfecdd7a7a4}; !- Layer 4

OS:StandardsInformation:Construction,
  {6dd7610d-fb96-4380-bc3c-7f26a494bf63}, !- Handle
  {c661b0d8-4f83-476e-ac04-3fc9a4daa32c}, !- Construction Name
  ExteriorWall,                           !- Intended Surface Type
  Mass;                                   !- Standards Construction Type

OS:Construction,
  {59f2718a-684d-4938-b7ff-067d5832e580}, !- Handle
  ASHRAE 189.1-2009 ExtWall Mass ClimateZone alt-res 3, !- Name
  ,                                       !- Surface Rendering Name
  {f1903c5e-40a3-421b-a8b5-d53eaa71d82b}, !- Layer 1
  {6031fb6d-0777-44db-a3d8-07a38b2fe490}, !- Layer 2
  {4864384b-cd1e-4346-9e59-74460c3b6bff}, !- Layer 3
  {07c4f534-ff5e-4548-a390-9bfecdd7a7a4}; !- Layer 4

OS:StandardsInformation:Construction,
  {c54e12b4-2591-42d4-9e6f-567913790169}, !- Handle
  {59f2718a-684d-4938-b7ff-067d5832e580}, !- Construction Name
  ExteriorWall,                           !- Intended Surface Type
  Mass;                                   !- Standards Construction Type

OS:Construction,
  {ba4832d0-456f-49eb-8a73-ea7374e25546}, !- Handle
  ASHRAE 189.1-2009 ExtWall Mass ClimateZone alt-res 4, !- Name
  ,                                       !- Surface Rendering Name
  {f1903c5e-40a3-421b-a8b5-d53eaa71d82b}, !- Layer 1
  {6031fb6d-0777-44db-a3d8-07a38b2fe490}, !- Layer 2
  {f67ea8fd-8aa8-44cd-9a89-4e78b3525028}, !- Layer 3
  {07c4f534-ff5e-4548-a390-9bfecdd7a7a4}; !- Layer 4

OS:StandardsInformation:Construction,
  {5b989f14-706f-468b-9a59-09d8e61d8cbc}, !- Handle
  {ba4832d0-456f-49eb-8a73-ea7374e25546}, !- Construction Name
  ExteriorWall,                           !- Intended Surface Type
  Mass;                                   !- Standards Construction Type

OS:Construction,
  {90ec116e-0f4d-45aa-a892-4628dedce94f}, !- Handle
  ASHRAE 189.1-2009 ExtWall Mass ClimateZone alt-res 5, !- Name
  ,                                       !- Surface Rendering Name
  {f1903c5e-40a3-421b-a8b5-d53eaa71d82b}, !- Layer 1
  {6031fb6d-0777-44db-a3d8-07a38b2fe490}, !- Layer 2
  {4e7c0ed5-34eb-4b36-9266-c25cac6bebbb}, !- Layer 3
  {07c4f534-ff5e-4548-a390-9bfecdd7a7a4}; !- Layer 4

OS:StandardsInformation:Construction,
  {6ee659db-9a7d-4109-b00a-fc8317e7c626}, !- Handle
  {90ec116e-0f4d-45aa-a892-4628dedce94f}, !- Construction Name
  ExteriorWall,                           !- Intended Surface Type
  Mass;                                   !- Standards Construction Type

OS:Construction,
  {8a801109-29c9-4e67-bea7-8a7deb9adfc4}, !- Handle
  ASHRAE 189.1-2009 ExtWall Mass ClimateZone alt-res 6, !- Name
  ,                                       !- Surface Rendering Name
  {f1903c5e-40a3-421b-a8b5-d53eaa71d82b}, !- Layer 1
  {6031fb6d-0777-44db-a3d8-07a38b2fe490}, !- Layer 2
  {1ba31e53-634a-48c6-94ab-2e94e5058ef7}, !- Layer 3
  {07c4f534-ff5e-4548-a390-9bfecdd7a7a4}; !- Layer 4

OS:StandardsInformation:Construction,
  {f6bd0db8-81e7-43d3-95c3-7be85672bfc8}, !- Handle
  {8a801109-29c9-4e67-bea7-8a7deb9adfc4}, !- Construction Name
  ExteriorWall,                           !- Intended Surface Type
  Mass;                                   !- Standards Construction Type

OS:Construction,
  {47127a0e-e06f-4c65-8ac3-c3ffd5e6b788}, !- Handle
  ASHRAE 189.1-2009 ExtWall Mass ClimateZone alt-res 7, !- Name
  ,                                       !- Surface Rendering Name
  {f1903c5e-40a3-421b-a8b5-d53eaa71d82b}, !- Layer 1
  {6031fb6d-0777-44db-a3d8-07a38b2fe490}, !- Layer 2
  {1ba31e53-634a-48c6-94ab-2e94e5058ef7}, !- Layer 3
  {07c4f534-ff5e-4548-a390-9bfecdd7a7a4}; !- Layer 4

OS:StandardsInformation:Construction,
  {5032d998-24a1-469b-afc9-13972e5dd076}, !- Handle
  {47127a0e-e06f-4c65-8ac3-c3ffd5e6b788}, !- Construction Name
  ExteriorWall,                           !- Intended Surface Type
  Mass;                                   !- Standards Construction Type

OS:Construction,
  {a1f6a2b9-6080-4483-98a9-c5070c6ef86d}, !- Handle
  ASHRAE 189.1-2009 ExtWall Mass ClimateZone alt-res 8, !- Name
  ,                                       !- Surface Rendering Name
  {f1903c5e-40a3-421b-a8b5-d53eaa71d82b}, !- Layer 1
  {6031fb6d-0777-44db-a3d8-07a38b2fe490}, !- Layer 2
  {24046b58-86a1-4a77-8c24-3b3776575167}, !- Layer 3
  {07c4f534-ff5e-4548-a390-9bfecdd7a7a4}; !- Layer 4

OS:StandardsInformation:Construction,
  {79a3d47f-caf5-4a6e-9ed9-ba35bbed4184}, !- Handle
  {a1f6a2b9-6080-4483-98a9-c5070c6ef86d}, !- Construction Name
  ExteriorWall,                           !- Intended Surface Type
  Mass;                                   !- Standards Construction Type

OS:Material,
  {24046b58-86a1-4a77-8c24-3b3776575167}, !- Handle