
OS:Version,
  {629aa14b-d51f-45e2-a840-6e15ae96eddf}, !- Handle
  1.2.3;                                  !- Version Identifier

OS:Construction,
  {b1a8dd08-083d-4c0f-9ca3-bd6fbf2a1a52}, !- Handle
  ASHRAE 189.1-2009 AtticFloor ClimateZone 1-8, !- Name
  ,                                       !- Surface Rendering Name
  {71ef93ca-4c52-4284-acd1-e36c9f5d108f}, !- Layer 1
  {0ea4cd9c-3b3c-4e90-bf54-c2422aa2b480}, !- Layer 2
  {71ef93ca-4c52-4284-acd1-e36c9f5d108f}; !- Layer 3

OS:StandardsInformation:Construction,
  {4e9aa822-8312-4bee-a9e3-337d29b28196}, !- Handle
  {b1a8dd08-083d-4c0f-9ca3-bd6fbf2a1a52}, !- Construction Name
  AtticFloor,                             !- Intended Surface Type
  ASHRAE 189.1-2009;                      !- Standards Construction Type

OS:Material,
  {71ef93ca-4c52-4284-acd1-e36c9f5d108f}, !- Handle
  1/2IN Gypsum,                           !- Name
  Smooth,                                 !- Roughness
  0.0127,                                 !- Thickness {m}
  0.16,                                   !- Conductivity {W/m-K}
  784.9,                                  !- Density {kg/m3}
  830.000000000001,                       !- Specific Heat {J/kg-K}
  0.9,                                    !- Thermal Absorptance
  0.92,                                   !- Solar Absorptance
  0.92;                                   !- Visible Absorptance

OS:Material,
  {0ea4cd9c-3b3c-4e90-bf54-c2422aa2b480}, !- Handle
  AtticFloor Insulation,                  !- Name
  MediumRough,                            !- Roughness
  0.2379,                                 !- Thickness {m}
  0.049,                                  !- Conductivity {W/m-K}
  265,                                    !- Density {kg/m3}
  836.800000000001,                       !- Specific Heat {J/kg-K}
  0.9,                                    !- Thermal Absorptance
  0.7,                                    !- Solar Absorptance
  0.7;                                    !- Visible Absorptance

OS:Construction,
  {f291febe-dfc2-4dc0-a88f-d48cfaec5544}, !- Handle
  ASHRAE 189.1-2009 ExtRoof IEAD ClimateZone 1, !- Name
  ,                                       !- Surface Rendering Name
  {c5b0a8b0-1df2-4418-a58c-1532eb7d8a63}, !- Layer 1
  {d8524608-9e09-47cf-9e4f-bbb0ae507af1}, !- Layer 2
  {976f4a65-edb3-4c78-ab32-54f1e6b98e0c}; !- Layer 3

OS:StandardsInformation:Construction,
  {b70088aa-dee9-48ce-95c0-111afa8ac8b8}, !- Handle
  {f291febe-dfc2-4dc0-a88f-d48cfaec5544}, !- Construction Name
  ExteriorRoof,                           !- Intended Surface Type
  ASHRAE 189.1-2009;                      !- Standards Construction Type

OS:Material,
  {c5b0a8b0-1df2-4418-a58c-1532eb7d8a63}, !- Handle
  Roof Membrane,                          !- Name
  VeryRough,                              !- Roughness
  0.0095,                                 !- Thickness {m}
  0.16,                                   !- Conductivity {W/m-K}
  1121.29,                                !- Density {kg/m3}
  1460,                                   !- Specific Heat {J/kg-K}
  0.9,                                    !- Thermal Absorptance
  0.7,                                    !- Solar Absorptance
  0.7;                                    !- Visible Absorptance

OS:Material,
  {d8524608-9e09-47cf-9e4f-bbb0ae507af1}, !- Handle
  Roof Insulation [18],                   !- Name
  MediumRough,                            !- Roughness
  0.1693,                                 !- Thickness {m}
  0.049,                                  !- Conductivity {W/m-K}
  265,                                    !- Density {kg/m3}
  836.800000000001,                       !- Specific Heat {J/kg-K}
  0.9,                                    !- Thermal Absorptance
  0.7,                                    !- Solar Absorptance
  0.7;                                    !- Visible Absorptance

OS:Material,
  {976f4a65-edb3-4c78-ab32-54f1e6b98e0c}, !- Handle
  Metal Decking,                          !- Name
  MediumSmooth,                           !- Roughness
  0.0015,                                 !- Thickness {m}
  45.006,                                 !- Conductivity {W/m-K}
  7680,                                   !- Density {kg/m3}
  418.4,                                  !- Specific Heat {J/kg-K}
  0.9,                                    !- Thermal Absorptance
  0.7,                                    !- Solar Absorptance
  0.3;                                    !- Visible Absorptance

OS:Construction,
  {1aca76bb-b690-4599-bdc6-73b98b3527c2}, !- Handle
  ASHRAE 189.1-2009 ExtRoof IEAD ClimateZone 2-5, !- Name
  ,                                       !- Surface Rendering Name
  {c5b0a8b0-1df2-4418-a58c-1532eb7d8a63}, !- Layer 1
  {b4834098-f22e-45e2-8acd-6060c01afe13}, !- Layer 2
  {976f4a65-edb3-4c78-ab32-54f1e6b98e0c}; !- Layer 3

OS:StandardsInformation:Construction,
  {235e51c5-24c9-456e-b683-7801d784ec8a}, !- Handle
  {1aca76bb-b690-4599-bdc6-73b98b3527c2}, !- Construction Name
  ExteriorRoof,                           !- Intended Surface Type
  ASHRAE 189.1-2009;                      !- Standards Construction Type

OS:Material,
  {b4834098-f22e-45e2-8acd-6060c01afe13}, !- Handle
  Roof Insulation [21],                   !- Name
  MediumRough,                            !- Roughness
  0.2105,                                 !- Thickness {m}
  0.049,                                  !- Conductivity {W/m-K}
  265,                                    !- Density {kg/m3}
  836.800000000001,                       !- Specific Heat {J/kg-K}
  0.9,                                    !- Thermal Absorptance
  0.7,                                    !- Solar Absorptance
  0.7;                                    !- Visible Absorptance

OS:Construction,
  {1ee150c0-4489-4aaf-ad8f-4bae8440f333}, !- Handle
  ASHRAE 189.1-2009 ExtRoof IEAD ClimateZone 6, !- Name
  ,                                       !- Surface Rendering Name
  {c5b0a8b0-1df2-4418-a58c-1532eb7d8a63}, !- Layer 1
  {69d51368-e742-490b-ac25-44592597fc9d}, !- Layer 2
  {976f4a65-edb3-4c78-ab32-54f1e6b98e0c}; !- Layer 3

OS:StandardsInformation:Construction,
  {6d0af3be-fd74-4fde-ba97-a8e156b8d31a}, !- Handle
  {1ee150c0-4489-4aaf-ad8f-4bae8440f333}, !- Construction Name
  ExteriorRoof,                           !- Intended Surface Type
  ASHRAE 189.1-2009;                      !- Standards Construction Type

OS:Material,
  {69d51368-e742-490b-ac25-44592597fc9d}, !- Handle
  Roof Insulation [24],                   !- Name
  MediumRough,                            !- Roughness
  0.260100000000001,                      !- Thickness {m}
  0.049,                                  !- Conductivity {W/m-K}
  265,                                    !- Density {kg/m3}
  836.800000000001,                       !- Specific Heat {J/kg-K}
  0.9,                                    !- Thermal Absorptance
  0.7,                                    !- Solar Absorptance
  0.7;                                    !- Visible Absorptance

OS:Construction,
  {835a7578-0c78-4d5b-86f5-0284fd194b4c}, !- Handle
  ASHRAE 189.1-2009 ExtRoof IEAD ClimateZone 7-8, !- Name
  ,                                       !- Surface Rendering Name
  {c5b0a8b0-1df2-4418-a58c-1532eb7d8a63}, !- Layer 1
  {8b54da38-3682-483f-82a0-a837d786a628}, !- Layer 2
  {976f4a65-edb3-4c78-ab32-54f1e6b98e0c}; !- Layer 3

OS:StandardsInformation:Construction,
  {eae730f1-acb3-484a-aab5-cebfb3a47ef4}, !- Handle
  {835a7578-0c78-4d5b-86f5-0284fd194b4c}, !- Construction Name
  ExteriorRoof,                           !- Intended Surface Type
  ASHRAE 189.1-2009;                      !- Standards Construction Type

OS:Material,
  {8b54da38-3682-483f-82a0-a837d786a628}, !- Handle
  Roof Insulation [26],                   !- Name
  MediumRough,                            !- Roughness
  0.2941,                                 !- Thickness {m}
  0.049,                                  !- Conductivity {W/m-K}
  265,                                    !- Density {kg/m3}
  836.800000000001,                       !- Specific Heat {J/kg-K}
  0.9,                                    !- Thermal Absorptance
  0.7,                                    !- Solar Absorptance
  0.7;                                    !- Visible Absorptance

OS:Construction,
  {ff648fe2-6c95-4d79-8c7a-ec1a4e1d8bd1}, !- Handle
  ASHRAE 189.1-2009 ExtRoof Metal ClimateZone 1, !- Name
  ,                                       !- Surface Rendering Name
  {fab4aa8b-03e5-40a5-8c99-40cadc7be9e3}, !- Layer 1
  {719f1fd5-77a9-43e5-883a-02659efab088}; !- Layer 2

OS:StandardsInformation:Construction,
  {75dbff1f-67d7-42a1-bfd4-744bd5103662}, !- Handle
  {ff648fe2-6c95-4d79-8c7a-ec1a4e1d8bd1}, !- Construction Name
  ExteriorRoof,                           !- Intended Surface Type
  ASHRAE 189.1-2009;                      !- Standards Construction Type

OS:Material,
  {fab4aa8b-03e5-40a5-8c99-40cadc7be9e3}, !- Handle
  Metal Roofing,                          !- Name
  MediumSmooth,                           !- Roughness
  0.0015,                                 !- Thickness {m}
  45.006,                                 !- Conductivity {W/m-K}
  7680,                                   !- Density {kg/m3}
  418.4,                                  !- Specific Heat {J/kg-K}
  0.9,                                    !- Thermal Absorptance
  0.3,                                    !- Solar Absorptance
  0.3;                                    !- Visible Absorptance

OS:Material,
  {719f1fd5-77a9-43e5-883a-02659efab088}, !- Handle
  Roof Insulation [19],                   !- Name
  MediumRough,                            !- Roughness
  0.1868,                                 !- Thickness {m}
  0.049,                                  !- Conductivity {W/m-K}
  265,                                    !- Density {kg/m3}
  836.800000000001,                       !- Specific Heat {J/kg-K}
  0.9,                                    !- Thermal Absorptance
  0.7,                                    !- Solar Absorptance
  0.7;                                    !- Visible Absorptance

OS:Construction,
  {0248cdbf-1a16-4712-a310-a6903a57ab37}, !- Handle
  ASHRAE 189.1-2009 ExtRoof Metal ClimateZone 2-5, !- Name
  ,                                       !- Surface Rendering Name
  {fab4aa8b-03e5-40a5-8c99-40cadc7be9e3}, !- Layer 1
  {20336592-dd9f-49e1-93e3-67d63372cb95}; !- Layer 2

OS:StandardsInformation:Construction,
  {9db624a8-1b02-4d96-bcc6-27c5cfef5ba4}, !- Handle
  {0248cdbf-1a16-4712-a310-a6903a57ab37}, !- Construction Name
  ExteriorRoof,                           !- Intended Surface Type
  ASHRAE 189.1-2009;                      !- Standards Construction Type

OS:Material,
  {20336592-dd9f-49e1-93e3-67d63372cb95}, !- Handle
  Roof Insulation [22],                   !- Name
  MediumRough,                            !- Roughness
  0.2358,                                 !- Thickness {m}
  0.049,                                  !- Conductivity {W/m-K}
  265,                                    !- Density {kg/m3}
  836.800000000001,                       !- Specific Heat {J/kg-K}
  0.9,                                    !- Thermal Absorptance
  0.7,                                    !- Solar Absorptance
  0.7;                                    !- Visible Absorptance

OS:Construction,
  {da4d35eb-a5b2-474d-97a0-685508b52e52}, !- Handle
  ASHRAE 189.1-2009 ExtRoof Metal ClimateZone 6, !- Name
  ,                                       !- Surface Rendering Name
  {fab4aa8b-03e5-40a5-8c99-40cadc7be9e3}, !- Layer 1
  {b4ee62de-843d-4cff-89d5-709a12c6904d}; !- Layer 2

OS:StandardsInformation:Construction,
  {2e4ed075-91fd-4a73-8f53-e440d5e3805d}, !- Handle
  {da4d35eb-a5b2-474d-97a0-685508b52e52}, !- Construction Name
  ExteriorRoof,                           !- Intended Surface Type
  ASHRAE 189.1-2009;                      !- Standards Construction Type

OS:Material,
  {b4ee62de-843d-4cff-89d5-709a12c6904d}, !- Handle
  Roof Insulation [25],                   !- Name
  MediumRough,                            !- Roughness
  0.263,                                  !- Thickness {m}
  0.049,                                  !- Conductivity {W/m-K}
  265,                                    !- Density {kg/m3}
  836.800000000001,                       !- Specific Heat {J/kg-K}
  0.9,                                    !- Thermal Absorptance
  0.7,                                    !- Solar Absorptance
  0.7;                                    !- Visible Absorptance

OS:Construction,
  {4579380c-9e48-45a1-8109-e0286b7ab4a7}, !- Handle
  ASHRAE 189.1-2009 ExtRoof Metal ClimateZone 7-8, !- Name
  ,                                       !- Surface Rendering Name
  {fab4aa8b-03e5-40a5-8c99-40cadc7be9e3}, !- Layer 1
  {ef3a26f3-4f03-4783-a48a-ec03a7e5424e}; !- Layer 2

OS:StandardsInformation:Construction,
  {98e5d767-2358-448c-bd3a-7bc6cf7d2e44}, !- Handle
  {4579380c-9e48-45a1-8109-e0286b7ab4a7}, !- Construction Name
  ExteriorRoof,                           !- Intended Surface Type
  ASHRAE 189.1-2009;                      !- Standards Construction Type

OS:Material,
  {ef3a26f3-4f03-4783-a48a-ec03a7e5424e}, !- Handle
  Roof Insulation [27],                   !- Name
  MediumRough,                            !- Roughness
  0.297000000000001,                      !- Thickness {m}
  0.049,                                  !- Conductivity {W/m-K}
  265,                                    !- Density {kg/m3}
  836.800000000001,                       !- Specific Heat {J/kg-K}
  0.9,                                    !- Thermal Absorptance
  0.7,                                    !- Solar Absorptance
  0.7;                                    !- Visible Absorptance

OS:Construction,
  {452ce3ec-2375-4733-99ac-9514f3134f04}, !- Handle
  ASHRAE 189.1-2009 ExtWall Mass ClimateZone 1, !- Name
  ,                                       !- Surface Rendering Name
  {d4ee0a7b-fa52-4cc0-94c0-157013283f99}, !- Layer 1
  {915b0362-5b27-4c3a-902e-d769f540f9b6}, !- Layer 2
  {318373fd-36e5-4eb8-a9e5-4a91d54ca304}, !- Layer 3
  {71ef93ca-4c52-4284-acd1-e36c9f5d108f}; !- Layer 4

OS:StandardsInformation:Construction,
  {71c3aba1-1d26-4cce-8e61-5f0ff344d695}, !- Handle
  {452ce3ec-2375-4733-99ac-9514f3134f04}, !- Construction Name
  ExteriorWall,                           !- Intended Surface Type
  ASHRAE 189.1-2009;                      !- Standards Construction Type

OS:Material,
  {d4ee0a7b-fa52-4cc0-94c0-157013283f99}, !- Handle
  1IN Stucco,                             !- Name
  Smooth,                                 !- Roughness
  0.0253,                                 !- Thickness {m}
  0.691799999999999,                      !- Conductivity {W/m-K}
  1858,                                   !- Density {kg/m3}
  836.999999999999,                       !- Specific Heat {J/kg-K}
  0.9,                                    !- Thermal Absorptance
  0.92,                                   !- Solar Absorptance
  0.92;                                   !- Visible Absorptance

OS:Material,
  {915b0362-5b27-4c3a-902e-d769f540f9b6}, !- Handle
  8IN Concrete HW,                        !- Name
  MediumRough,                            !- Roughness
  0.2033,                                 !- Thickness {m}
  1.72959999999999,                       !- Conductivity {W/m-K}
  2242.99999999999,                       !- Density {kg/m3}
  836.999999999999,                       !- Specific Heat {J/kg-K}
  0.9,                                    !- Thermal Absorptance
  0.65,                                   !- Solar Absorptance
  0.65;                                   !- Visible Absorptance

OS:Material,
  {318373fd-36e5-4eb8-a9e5-4a91d54ca304}, !- Handle
  Wall Insulation [31],                   !- Name
  MediumRough,                            !- Roughness
  0.0337000000000001,                     !- Thickness {m}
  0.0432,                                 !- Conductivity {W/m-K}
  91,                                     !- Density {kg/m3}
  836.999999999999,                       !- Specific Heat {J/kg-K}
  0.9,                                    !- Thermal Absorptance
  0.5,                                    !- Solar Absorptance
  0.5;                                    !- Visible Absorptance

OS:Construction,
  {f58494d0-a988-46a4-bb49-390d073f983a}, !- Handle
  ASHRAE 189.1-2009 ExtWall Mass ClimateZone 2, !- Name
  ,                                       !- Surface Rendering Name
  {d4ee0a7b-fa52-4cc0-94c0-157013283f99}, !- Layer 1
  {915b0362-5b27-4c3a-902e-d769f540f9b6}, !- Layer 2
  {dd8e4833-cc86-4baa-a91d-d0b6b222a3d2}, !- Layer 3
  {71ef93ca-4c52-4284-acd1-e36c9f5d108f}; !- Layer 4

OS:StandardsInformation:Construction,
  {035b0e4f-45bf-44f1-80e7-384f820b42cf}, !- Handle
  {f58494d0-a988-46a4-bb49-390d073f983a}, !- Construction Name
  ExteriorWall,                           !- Intended Surface Type
  ASHRAE 189.1-2009;                      !- Standards Construction Type

OS:Material,
  {dd8e4833-cc86-4baa-a91d-d0b6b222a3d2}, !- Handle
  Wall Insulation [35],                   !- Name
  MediumRough,                            !- Roughness
  0.0452,                                 !- Thickness {m}
  0.0432,                                 !- Conductivity {W/m-K}
  91,                                     !- Density {kg/m3}
  836.999999999999,                       !- Specific Heat {J/kg-K}
  0.9,                                    !- Thermal Absorptance
  0.5,                                    !- Solar Absorptance
  0.5;                                    !- Visible Absorptance

OS:Construction,
  {695efd0c-512c-4814-b4d2-2fdfc45cabab}, !- Handle
  ASHRAE 189.1-2009 ExtWall Mass ClimateZone 3, !- Name
  ,                                       !- Surface Rendering Name
  {d4ee0a7b-fa52-4cc0-94c0-157013283f99}, !- Layer 1
  {915b0362-5b27-4c3a-902e-d769f540f9b6}, !- Layer 2
  {6ae5c35c-08f4-4af8-bae6-89a78b318193}, !- Layer 3
  {71ef93ca-4c52-4284-acd1-e36c9f5d108f}; !- Layer 4

OS:StandardsInformation:Construction,
  {d18a7ce5-527c-4a6c-a905-b9582a6a0bcd}, !- Handle
  {695efd0c-512c-4814-b4d2-2fdfc45cabab}, !- Construction Name
  ExteriorWall,                           !- Intended Surface Type
  ASHRAE 189.1-2009;                      !- Standards Construction Type

OS:Material,
  {6ae5c35c-08f4-4af8-bae6-89a78b318193}, !- Handle
  Wall Insulation [36],                   !- Name
  MediumRough,                            !- Roughness
  0.0565999999999999,                     !- Thickness {m}
  0.0432,                                 !- Conductivity {W/m-K}
  91,                                     !- Density {kg/m3}
  836.999999999999,                       !- Specific Heat {J/kg-K}
  0.9,                                    !- Thermal Absorptance
  0.5,                                    !- Solar Absorptance
  0.5;                                    !- Visible Absorptance

OS:Construction,
  {cf7d456b-31b3-40a7-af9c-b1818f65e623}, !- Handle
  ASHRAE 189.1-2009 ExtWall Mass ClimateZone 4, !- Name
  ,                                       !- Surface Rendering Name
  {d4ee0a7b-fa52-4cc0-94c0-157013283f99}, !- Layer 1
  {915b0362-5b27-4c3a-902e-d769f540f9b6}, !- Layer 2
  {1863b36a-4cab-434c-8b1b-779873f85d9f}, !- Layer 3
  {71ef93ca-4c52-4284-acd1-e36c9f5d108f}; !- Layer 4

OS:StandardsInformation:Construction,
  {2cdb4c0d-2d41-41fe-b074-efb008de7ef2}, !- Handle
  {cf7d456b-31b3-40a7-af9c-b1818f65e623}, !- Construction Name
  ExteriorWall,                           !- Intended Surface Type
  ASHRAE 189.1-2009;                      !- Standards Construction Type

OS:Material,
  {1863b36a-4cab-434c-8b1b-779873f85d9f}, !- Handle
  Wall Insulation [37],                   !- Name
  MediumRough,                            !- Roughness
  0.0680999999999999,                     !- Thickness {m}
  0.0432,                                 !- Conductivity {W/m-K}
  91,                                     !- Density {kg/m3}
  836.999999999999,                       !- Specific Heat {J/kg-K}
  0.9,                                    !- Thermal Absorptance
  0.5,                                    !- Solar Absorptance
  0.5;                                    !- Visible Absorptance

OS:Construction,
  {5917a8bb-9947-4bd1-9933-cdc669259a76}, !- Handle
  ASHRAE 189.1-2009 ExtWall Mass ClimateZone 5, !- Name
  ,                                       !- Surface Rendering Name
  {d4ee0a7b-fa52-4cc0-94c0-157013283f99}, !- Layer 1
  {915b0362-5b27-4c3a-902e-d769f540f9b6}, !- Layer 2
  {fad3ff9f-c75f-48b9-b808-48b588f20b57}, !- Layer 3
  {71ef93ca-4c52-4284-acd1-e36c9f5d108f}; !- Layer 4

OS:StandardsInformation:Construction,
  {1f31d548-d5f9-4074-a543-a3871b5b867b}, !- Handle
  {5917a8bb-9947-4bd1-9933-cdc669259a76}, !- Construction Name
  ExteriorWall,                           !- Intended Surface Type
  ASHRAE 189.1-2009;                      !- Standards Construction Type

OS:Material,
  {fad3ff9f-c75f-48b9-b808-48b588f20b57}, !- Handle
  Wall Insulation [40],                   !- Name
  MediumRough,                            !- Roughness
  0.0793999999999999,                     !- Thickness {m}
  0.0432,                                 !- Conductivity {W/m-K}
  91,                                     !- Density {kg/m3}
  836.999999999999,                       !- Specific Heat {J/kg-K}
  0.9,                                    !- Thermal Absorptance
  0.5,                                    !- Solar Absorptance
  0.5;                                    !- Visible Absorptance

OS:Construction,
  {d792d14c-9f6e-4051-8fb0-8d79fd7e0c9a}, !- Handle
  ASHRAE 189.1-2009 ExtWall Mass ClimateZone 6, !- Name
  ,                                       !- Surface Rendering Name
  {d4ee0a7b-fa52-4cc0-94c0-157013283f99}, !- Layer 1
  {915b0362-5b27-4c3a-902e-d769f540f9b6}, !- Layer 2
  {d10e18a8-1f01-4fb7-8486-1260d9de85d8}, !- Layer 3
  {71ef93ca-4c52-4284-acd1-e36c9f5d108f}; !- Layer 4

OS:StandardsInformation:Construction,
  {c0ab3186-0594-49fe-8f36-41d8a6efb07a}, !- Handle
  {d792d14c-9f6e-4051-8fb0-8d79fd7e0c9a}, !- Construction Name
  ExteriorWall,                           !- Intended Surface Type
  ASHRAE 189.1-2009;                      !- Standards Construction Type

OS:Material,
  {d10e18a8-1f01-4fb7-8486-1260d9de85d8}, !- Handle
  Wall Insulation [42],                   !- Name
  MediumRough,                            !- Roughness
  0.0913999999999999,                     !- Thickness {m}
  0.0432,                                 !- Conductivity {W/m-K}
  91,                                     !- Density {kg/m3}
  836.999999999999,                       !- Specific Heat {J/kg-K}
  0.9,                                    !- Thermal Absorptance
  0.5,                                    !- Solar Absorptance
  0.5;                                    !- Visible Absorptance

OS:Construction,
  {0311e756-54ca-452d-9d02-1dd5cac1c583}, !- Handle
  ASHRAE 189.1-2009 ExtWall Mass ClimateZone 7-8, !- Name
  ,                                       !- Surface Rendering Name
  {d4ee0a7b-fa52-4cc0-94c0-157013283f99}, !- Layer 1
  {915b0362-5b27-4c3a-902e-d769f540f9b6}, !- Layer 2
  {078b7788-5a08-428a-9959-e6621a7ec03d}, !- Layer 3
  {71ef93ca-4c52-4284-acd1-e36c9f5d108f}; !- Layer 4

OS:StandardsInformation:Construction,
  {9afeb2d0-ce7b-46bf-b69d-6c6eec4cad37}, !- Handle
  {0311e756-54ca-452d-9d02-1dd5cac1c583}, !- Construction Name
  ExteriorWall,                           !- Intended Surface Type
  ASHRAE 189.1-2009;                      !- Standards Construction Type

OS:Material,
  {078b7788-5a08-428a-9959-e6621a7ec03d}, !- Handle
  Wall Insulation [44],                   !- Name
  MediumRough,                            !- Roughness
  0.1104,                                 !- Thickness {m}
  0.0432,                                 !- Conductivity {W/m-K}
  91,                                     !- Density {kg/m3}
  836.999999999999,                       !- Specific Heat {J/kg-K}
  0.9,                                    !- Thermal Absorptance
  0.5,                                    !- Solar Absorptance
  0.5;                                    !- Visible Absorptance

OS:Construction,
  {81699fde-242b-487a-b23a-10b08c5cb68e}, !- Handle
  ASHRAE 189.1-2009 ExtWall Mass ClimateZone alt-res 1, !- Name
  ,                                       !- Surface Rendering Name
  {d4ee0a7b-fa52-4cc0-94c0-157013283f99}, !- Layer 1
  {915b0362-5b27-4c3a-902e-d769f540f9b6}, !- Layer 2
  {dd8e4833-cc86-4baa-a91d-d0b6b222a3d2}, !- Layer 3
  {71ef93ca-4c52-4284-acd1-e36c9f5d108f}; !- Layer 4

OS:StandardsInformation:Construction,
  {4d18b71d-8d13-431b-9c90-7f5fc95b320f}, !- Handle
  {81699fde-242b-487a-b23a-10b08c5cb68e}, !- Construction Name
  ExteriorWall,                           !- Intended Surface Type
  ASHRAE 189.1-2009;                      !- Standards Construction Type

OS:Construction,
  {d74b90f5-9447-4021-a1f5-312316c5ed21}, !- Handle
  ASHRAE 189.1-2009 ExtWall Mass ClimateZone alt-res 2, !- Name
  ,                                       !- Surface Rendering Name
  {d4ee0a7b-fa52-4cc0-94c0-157013283f99}, !- Layer 1
  {915b0362-5b27-4c3a-902e-d769f540f9b6}, !- Layer 2
  {6ae5c35c-08f4-4af8-bae6-89a78b318193}, !- Layer 3
  {71ef93ca-4c52-4284-acd1-e36c9f5d108f}; !- Layer 4

OS:StandardsInformation:Construction,
  {f4db9a03-bad9-49df-b8eb-57fbd40cde1a}, !- Handle
  {d74b90f5-9447-4021-a1f5-312316c5ed21}, !- Construction Name
  ExteriorWall,                           !- Intended Surface Type
  ASHRAE 189.1-2009;                      !- Standards Construction Type

OS:Construction,
  {a92a9cea-861e-4d50-b1a3-897539954df0}, !- Handle
  ASHRAE 189.1-2009 ExtWall Mass ClimateZone alt-res 3, !- Name
  ,                                       !- Surface Rendering Name
  {d4ee0a7b-fa52-4cc0-94c0-157013283f99}, !- Layer 1
  {915b0362-5b27-4c3a-902e-d769f540f9b6}, !- Layer 2
  {1863b36a-4cab-434c-8b1b-779873f85d9f}, !- Layer 3
  {71ef93ca-4c52-4284-acd1-e36c9f5d108f}; !- Layer 4

OS:StandardsInformation:Construction,
  {2d59248c-eda2-4473-a522-4b4c94e7d2fc}, !- Handle
  {a92a9cea-861e-4d50-b1a3-897539954df0}, !- Construction Name
  ExteriorWall,                           !- Intended Surface Type
  ASHRAE 189.1-2009;                      !- Standards Construction Type

OS:Construction,
  {adc2211e-5dac-4127-99cc-8feb1919ffcf}, !- Handle
  ASHRAE 189.1-2009 ExtWall Mass ClimateZone alt-res 4, !- Name
  ,                                       !- Surface Rendering Name
  {d4ee0a7b-fa52-4cc0-94c0-157013283f99}, !- Layer 1
  {915b0362-5b27-4c3a-902e-d769f540f9b6}, !- Layer 2
  {fad3ff9f-c75f-48b9-b808-48b588f20b57}, !- Layer 3
  {71ef93ca-4c52-4284-acd1-e36c9f5d108f}; !- Layer 4

OS:StandardsInformation:Construction,
  {4b618c52-49ac-416e-b312-7e0ab4b8d342}, !- Handle
  {adc2211e-5dac-4127-99cc-8feb1919ffcf}, !- Construction Name
  ExteriorWall,                           !- Intended Surface Type
  ASHRAE 189.1-2009;                      !- Standards Construction Type

OS:Construction,
  {87f5376c-7003-49b9-9806-234918ace9c9}, !- Handle
  ASHRAE 189.1-2009 ExtWall Mass ClimateZone alt-res 5, !- Name
  ,                                       !- Surface Rendering Name
  {d4ee0a7b-fa52-4cc0-94c0-157013283f99}, !- Layer 1
  {915b0362-5b27-4c3a-902e-d769f540f9b6}, !- Layer 2
  {d10e18a8-1f01-4fb7-8486-1260d9de85d8}, !- Layer 3
  {71ef93ca-4c52-4284-acd1-e36c9f5d108f}; !- Layer 4

OS:StandardsInformation:Construction,
  {a9732bfb-9f1a-4437-ac1e-ff272acb57af}, !- Handle
  {87f5376c-7003-49b9-9806-234918ace9c9}, !- Construction Name
  ExteriorWall,                           !- Intended Surface Type
  ASHRAE 189.1-2009;                      !- Standards Construction Type

OS:Construction,
  {f785bac0-5eae-48a7-9e00-eecccfb3a9db}, !- Handle
  ASHRAE 189.1-2009 ExtWall Mass ClimateZone alt-res 6, !- Name
  ,                                       !- Surface Rendering Name
  {d4ee0a7b-fa52-4cc0-94c0-157013283f99}, !- Layer 1
  {915b0362-5b27-4c3a-902e-d769f540f9b6}, !- Layer 2
  {078b7788-5a08-428a-9959-e6621a7ec03d}, !- Layer 3
  {71ef93ca-4c52-4284-acd1-e36c9f5d108f}; !- Layer 4

OS:StandardsInformation:Construction,
  {9d18f73c-67ba-47c4-9f62-5112feccc35c}, !- Handle
  {f785bac0-5eae-48a7-9e00-eecccfb3a9db}, !- Construction Name
  ExteriorWall,                           !- Intended Surface Type
  ASHRAE 189.1-2009;                      !- Standards Construction Type

OS:Construction,
  {e1ed037a-f1d8-445f-8233-deb984216568}, !- Handle
  ASHRAE 189.1-2009 ExtWall Mass ClimateZone alt-res 7, !- Name
  ,                                       !- Surface Rendering Name
  {d4ee0a7b-fa52-4cc0-94c0-157013283f99}, !- Layer 1
  {915b0362-5b27-4c3a-902e-d769f540f9b6}, !- Layer 2
  {078b7788-5a08-428a-9959-e6621a7ec03d}, !- Layer 3
  {71ef93ca-4c52-4284-acd1-e36c9f5d108f}; !- Layer 4

OS:StandardsInformation:Construction,
  {dad6ad5a-3127-43d1-905d-279ce600a1fc}, !- Handle
  {e1ed037a-f1d8-445f-8233-deb984216568}, !- Construction Name
  ExteriorWall,                           !- Intended Surface Type
  ASHRAE 189.1-2009;                      !- Standards Construction Type

OS:Construction,
  {7685631c-c26d-46e9-abb5-2656c310631b}, !- Handle
  ASHRAE 189.1-2009 ExtWall Mass ClimateZone alt-res 8, !- Name
  ,                                       !- Surface Rendering Name
  {d4ee0a7b-fa52-4cc0-94c0-157013283f99}, !- Layer 1
  {915b0362-5b27-4c3a-902e-d769f540f9b6}, !- Layer 2
  {2ab651aa-c3b7-4597-92a7-20e32594036b}, !- Layer 3
  {71ef93ca-4c52-4284-acd1-e36c9f5d108f}; !- Layer 4

OS:StandardsInformation:Construction,
  {99e56d0a-3509-459c-a6de-c15ea6a967cc}, !- Handle
  {7685631c-c26d-46e9-abb5-2656c310631b}, !- Construction Name
  ExteriorWall,                           !- Intended Surface Type
  ASHRAE 189.1-2009;                      !- Standards Construction Type

OS:Material,
  {2ab651aa-c3b7-4597-92a7-20e32594036b}, !- Handle