
OS:Version,
  {5c9f8d44-cd93-4e43-a58e-fbd0ad1ed7f7}, !- Handle
  1.3.3;                                  !- Version Identifier

OS:Construction,
  {90378053-9092-4a9a-b15e-e264cc36ed02}, !- Handle
  ASHRAE 189.1-2009 AtticFloor ClimateZone 1-8, !- Name
  ,                                       !- Surface Rendering Name
  {e09d38c6-9a90-4d3a-beb6-c8035d2d19ba}, !- Layer 1
  {775cd188-a155-4aa4-856d-1b2c52098b27}, !- Layer 2
  {e09d38c6-9a90-4d3a-beb6-c8035d2d19ba}; !- Layer 3

OS:StandardsInformation:Construction,
  {34ae3296-d75f-4ff5-bbdf-2110839b1edb}, !- Handle
  {90378053-9092-4a9a-b15e-e264cc36ed02}, !- Construction Name
  AtticFloor,                             !- Intended Surface Type
  WoodFramed;                             !- Standards Construction Type

OS:Material,
  {e09d38c6-9a90-4d3a-beb6-c8035d2d19ba}, !- Handle
  1/2IN Gypsum,                           !- Name
  Smooth,                                 !- Roughness
  0.0127,                                 !- Thickness {m}
  0.16,                                   !- Conductivity {W/m-K}
  784.9,                                  !- Density {kg/m3}
  830.000000000001,                       !- Specific Heat {J/kg-K}
  0.9,                                    !- Thermal Absorptance
  0.4,                                    !- Solar Absorptance
  0.4;                                    !- Visible Absorptance

OS:Material,
  {775cd188-a155-4aa4-856d-1b2c52098b27}, !- Handle
  AtticFloor Insulation,                  !- Name
  MediumRough,                            !- Roughness
  0.2379,                                 !- Thickness {m}
  0.049,                                  !- Conductivity {W/m-K}
  265,                                    !- Density {kg/m3}
  836.800000000001,                       !- Specific Heat {J/kg-K}
  0.9,                                    !- Thermal Absorptance
  0.7,                                    !- Solar Absorptance
  0.7;                                    !- Visible Absorptance

OS:Construction,
  {13bc7ff3-5b14-43b9-b3ca-26986ff76b3c}, !- Handle
  ASHRAE 189.1-2009 ExtRoof IEAD ClimateZone 1, !- Name
  ,                                       !- Surface Rendering Name
  {a294d2b3-5426-458c-92d7-e20e1b6d141b}, !- Layer 1
  {e0cb2ed2-80ef-4724-b82f-0f950556ae84}, !- Layer 2
  {46428411-a558-4a3e-9e01-4e73b8594344}; !- Layer 3

OS:StandardsInformation:Construction,
  {ce84158c-d490-49bd-9d53-ecc1be7ebad7}, !- Handle
  {13bc7ff3-5b14-43b9-b3ca-26986ff76b3c}, !- Construction Name
  ExteriorRoof,                           !- Intended Surface Type
  IEAD;                                   !- Standards Construction Type

OS:Material,
  {a294d2b3-5426-458c-92d7-e20e1b6d141b}, !- Handle
  Roof Membrane,                          !- Name
  VeryRough,                              !- Roughness
  0.0095,                                 !- Thickness {m}
  0.16,                                   !- Conductivity {W/m-K}
  1121.29,                                !- Density {kg/m3}
  1460,                                   !- Specific Heat {J/kg-K}
  0.9,                                    !- Thermal Absorptance
  0.7,                                    !- Solar Absorptance
  0.7;                                    !- Visible Absorptance

OS:Material,
  {e0cb2ed2-80ef-4724-b82f-0f950556ae84}, !- Handle
  Roof Insulation [18],                   !- Name
  MediumRough,                            !- Roughness
  0.1693,                                 !- Thickness {m}
  0.049,                                  !- Conductivity {W/m-K}
  265,                                    !- Density {kg/m3}
  836.800000000001,                       !- Specific Heat {J/kg-K}
  0.9,                                    !- Thermal Absorptance
  0.7,                                    !- Solar Absorptance
  0.7;                                    !- Visible Absorptance

OS:Material,
  {46428411-a558-4a3e-9e01-4e73b8594344}, !- Handle
  Metal Decking,                          !- Name
  MediumSmooth,                           !- Roughness
  0.0015,                                 !- Thickness {m}
  45.006,                                 !- Conductivity {W/m-K}
  7680,                                   !- Density {kg/m3}
  418.4,                                  !- Specific Heat {J/kg-K}
  0.9,                                    !- Thermal Absorptance
  0.6,                                    !- Solar Absorptance
  0.6;                                    !- Visible Absorptance

OS:Construction,
  {690e55be-a871-45e4-baa5-b80e152af67d}, !- Handle
  ASHRAE 189.1-2009 ExtRoof IEAD ClimateZone 2-5, !- Name
  ,                                       !- Surface Rendering Name
  {a294d2b3-5426-458c-92d7-e20e1b6d141b}, !- Layer 1
  {256a5e65-c326-4fe2-bb6b-bfc50cf0af9a}, !- Layer 2
  {46428411-a558-4a3e-9e01-4e73b8594344}; !- Layer 3

OS:StandardsInformation:Construction,
  {fa64a145-36a2-465f-ba70-33025e012dd5}, !- Handle
  {690e55be-a871-45e4-baa5-b80e152af67d}, !- Construction Name
  ExteriorRoof,                           !- Intended Surface Type
  IEAD;                                   !- Standards Construction Type

OS:Material,
  {256a5e65-c326-4fe2-bb6b-bfc50cf0af9a}, !- Handle
  Roof Insulation [21],                   !- Name
  MediumRough,                            !- Roughness
  0.2105,                                 !- Thickness {m}
  0.049,                                  !- Conductivity {W/m-K}
  265,                                    !- Density {kg/m3}
  836.800000000001,                       !- Specific Heat {J/kg-K}
  0.9,                                    !- Thermal Absorptance
  0.7,                                    !- Solar Absorptance
  0.7;                                    !- Visible Absorptance

OS:Construction,
  {be517b41-9e96-4e28-8918-9959c10b4573}, !- Handle
  ASHRAE 189.1-2009 ExtRoof IEAD ClimateZone 6, !- Name
  ,                                       !- Surface Rendering Name
  {a294d2b3-5426-458c-92d7-e20e1b6d141b}, !- Layer 1
  {c3ac3d6f-5e3a-4bbd-9b13-6c3d4d07519f}, !- Layer 2
  {46428411-a558-4a3e-9e01-4e73b8594344}; !- Layer 3

OS:StandardsInformation:Construction,
  {e7658014-648d-444b-9d18-23663dcc4fa1}, !- Handle
  {be517b41-9e96-4e28-8918-9959c10b4573}, !- Construction Name
  ExteriorRoof,                           !- Intended Surface Type
  IEAD;                                   !- Standards Construction Type

OS:Material,
  {c3ac3d6f-5e3a-4bbd-9b13-6c3d4d07519f}, !- Handle
  Roof Insulation [24],                   !- Name
  MediumRough,                            !- Roughness
  0.260100000000001,                      !- Thickness {m}
  0.049,                                  !- Conductivity {W/m-K}
  265,                                    !- Density {kg/m3}
  836.800000000001,                       !- Specific Heat {J/kg-K}
  0.9,                                    !- Thermal Absorptance
  0.7,                                    !- Solar Absorptance
  0.7;                                    !- Visible Absorptance

OS:Construction,
  {db60050e-3812-4c67-872a-132d33c0c0ea}, !- Handle
  ASHRAE 189.1-2009 ExtRoof IEAD ClimateZone 7-8, !- Name
  ,                                       !- Surface Rendering Name
  {a294d2b3-5426-458c-92d7-e20e1b6d141b}, !- Layer 1
  {6c62740c-4a2a-4915-85f0-61e146e8c987}, !- Layer 2
  {46428411-a558-4a3e-9e01-4e73b8594344}; !- Layer 3

OS:StandardsInformation:Construction,
  {17bdfc68-9c92-4c42-beec-0c643753d66e}, !- Handle
  {db60050e-3812-4c67-872a-132d33c0c0ea}, !- Construction Name
  ExteriorRoof,                           !- Intended Surface Type
  IEAD;                                   !- Standards Construction Type

OS:Material,
  {6c62740c-4a2a-4915-85f0-61e146e8c987}, !- Handle
  Roof Insulation [26],                   !- Name
  MediumRough,                            !- Roughness
  0.2941,                                 !- Thickness {m}
  0.049,                                  !- Conductivity {W/m-K}
  265,                                    !- Density {kg/m3}
  836.800000000001,                       !- Specific Heat {J/kg-K}
  0.9,                                    !- Thermal Absorptance
  0.7,                                    !- Solar Absorptance
  0.7;                                    !- Visible Absorptance

OS:Construction,
  {383e22d6-fbda-4a68-9855-03f8fdd632a3}, !- Handle
  ASHRAE 189.1-2009 ExtRoof Metal ClimateZone 1, !- Name
  ,                                       !- Surface Rendering Name
  {cc2499ec-0100-4b52-8925-2a1771156c13}, !- Layer 1
  {d0f57797-8064-46c7-bc48-4aa9fbfe8f1d}, !- Layer 2
  {46428411-a558-4a3e-9e01-4e73b8594344}; !- Layer 3

OS:StandardsInformation:Construction,
  {2d4f9ccc-082c-424e-96f7-7ff05dff9235}, !- Handle
  {383e22d6-fbda-4a68-9855-03f8fdd632a3}, !- Construction Name
  ExteriorRoof,                           !- Intended Surface Type
  Metal;                                  !- Standards Construction Type

OS:Material,
  {cc2499ec-0100-4b52-8925-2a1771156c13}, !- Handle
  Metal Roofing,                          !- Name
  MediumSmooth,                           !- Roughness
  0.0015,                                 !- Thickness {m}
  45.006,                                 !- Conductivity {W/m-K}
  7680,                                   !- Density {kg/m3}
  418.4,                                  !- Specific Heat {J/kg-K}
  0.9,                                    !- Thermal Absorptance
  0.6,                                    !- Solar Absorptance
  0.6;                                    !- Visible Absorptance

OS:Material,
  {d0f57797-8064-46c7-bc48-4aa9fbfe8f1d}, !- Handle
  Roof Insulation [19],                   !- Name
  MediumRough,                            !- Roughness
  0.1868,                                 !- Thickness {m}
  0.049,                                  !- Conductivity {W/m-K}
  265,                                    !- Density {kg/m3}
  836.800000000001,                       !- Specific Heat {J/kg-K}
  0.9,                                    !- Thermal Absorptance
  0.7,                                    !- Solar Absorptance
  0.7;                                    !- Visible Absorptance

OS:Construction,
  {e9424a1e-751f-48b4-8620-d0da6d5697e7}, !- Handle
  ASHRAE 189.1-2009 ExtRoof Metal ClimateZone 2-5, !- Name
  ,                                       !- Surface Rendering Name
  {cc2499ec-0100-4b52-8925-2a1771156c13}, !- Layer 1
  {0fa56c3b-1663-4775-972c-bdb6cdc994df}, !- Layer 2
  {46428411-a558-4a3e-9e01-4e73b8594344}; !- Layer 3

OS:StandardsInformation:Construction,
  {66a31f54-49a6-49ab-8e74-e93f004e0961}, !- Handle
  {e9424a1e-751f-48b4-8620-d0da6d5697e7}, !- Construction Name
  ExteriorRoof,                           !- Intended Surface Type
  Metal;                                  !- Standards Construction Type

OS:Material,
  {0fa56c3b-1663-4775-972c-bdb6cdc994df}, !- Handle
  Roof Insulation [22],                   !- Name
  MediumRough,                            !- Roughness
  0.2358,                                 !- Thickness {m}
  0.049,                                  !- Conductivity {W/m-K}
  265,                                    !- Density {kg/m3}
  836.800000000001,                       !- Specific Heat {J/kg-K}
  0.9,                                    !- Thermal Absorptance
  0.7,                                    !- Solar Absorptance
  0.7;                                    !- Visible Absorptance

OS:Construction,
  {9c7081ae-e346-4905-bca8-602176393a0f}, !- Handle
  ASHRAE 189.1-2009 ExtRoof Metal ClimateZone 6, !- Name
  ,                                       !- Surface Rendering Name
  {cc2499ec-0100-4b52-8925-2a1771156c13}, !- Layer 1
  {2cb0555e-b773-4e43-9650-19be97862bbb}, !- Layer 2
  {46428411-a558-4a3e-9e01-4e73b8594344}; !- Layer 3

OS:StandardsInformation:Construction,
  {ed3a8202-32a3-4839-ac70-02bde816456c}, !- Handle
  {9c7081ae-e346-4905-bca8-602176393a0f}, !- Construction Name
  ExteriorRoof,                           !- Intended Surface Type
  Metal;                                  !- Standards Construction Type

OS:Material,
  {2cb0555e-b773-4e43-9650-19be97862bbb}, !- Handle
  Roof Insulation [25],                   !- Name
  MediumRough,                            !- Roughness
  0.263,                                  !- Thickness {m}
  0.049,                                  !- Conductivity {W/m-K}
  265,                                    !- Density {kg/m3}
  836.800000000001,                       !- Specific Heat {J/kg-K}
  0.9,                                    !- Thermal Absorptance
  0.7,                                    !- Solar Absorptance
  0.7;                                    !- Visible Absorptance

OS:Construction,
  {387254e6-1cc2-4008-8570-a961cd35d8e1}, !- Handle
  ASHRAE 189.1-2009 ExtRoof Metal ClimateZone 7-8, !- Name
  ,                                       !- Surface Rendering Name
  {cc2499ec-0100-4b52-8925-2a1771156c13}, !- Layer 1
  {f9407869-8c42-42ef-bbda-04863d1d1c68}, !- Layer 2
  {46428411-a558-4a3e-9e01-4e73b8594344}; !- Layer 3

OS:StandardsInformation:Construction,
  {a0a1d3a1-42c0-4a4c-89e1-b649affa96c6}, !- Handle
  {387254e6-1cc2-4008-8570-a961cd35d8e1}, !- Construction Name
  ExteriorRoof,                           !- Intended Surface Type
  Metal;                                  !- Standards Construction Type

OS:Material,
  {f9407869-8c42-42ef-bbda-04863d1d1c68}, !- Handle
  Roof Insulation [27],                   !- Name
  MediumRough,                            !- Roughness
  0.297000000000001,                      !- Thickness {m}
  0.049,                                  !- Conductivity {W/m-K}
  265,                                    !- Density {kg/m3}
  836.800000000001,                       !- Specific Heat {J/kg-K}
  0.9,                                    !- Thermal Absorptance
  0.7,                                    !- Solar Absorptance
  0.7;                                    !- Visible Absorptance

OS:Construction,
  {39f7b40c-eace-492d-8811-30dc6215c6cf}, !- Handle
  ASHRAE 189.1-2009 ExtWall Mass ClimateZone 1, !- Name
  ,                                       !- Surface Rendering Name
  {67e8f662-52c9-4471-be56-d07e359c4dd5}, !- Layer 1
  {d9ed59d0-3086-4770-9e55-803d73f22f5b}, !- Layer 2
  {c181637c-cb1a-438d-9764-32f3f29f1c54}, !- Layer 3
  {e09d38c6-9a90-4d3a-beb6-c8035d2d19ba}; !- Layer 4

OS:StandardsInformation:Construction,
  {e2fe53b8-b4a1-45b8-a40b-ba125cfb5974}, !- Handle
  {39f7b40c-eace-492d-8811-30dc6215c6cf}, !- Construction Name
  ExteriorWall,                           !- Intended Surface Type
  Mass;                                   !- Standards Construction Type

OS:Material,
  {67e8f662-52c9-4471-be56-d07e359c4dd5}, !- Handle
  1IN Stucco,                             !- Name
  Smooth,                                 !- Roughness
  0.0253,                                 !- Thickness {m}
  0.691799999999999,                      !- Conductivity {W/m-K}
  1858,                                   !- Density {kg/m3}
  836.999999999999,                       !- Specific Heat {J/kg-K}
  0.9,                                    !- Thermal Absorptance
  0.92,                                   !- Solar Absorptance
  0.92;                                   !- Visible Absorptance

OS:Material,
  {d9ed59d0-3086-4770-9e55-803d73f22f5b}, !- Handle
  8IN Concrete HW,                        !- Name
  MediumRough,                            !- Roughness
  0.2033,                                 !- Thickness {m}
  1.72959999999999,                       !- Conductivity {W/m-K}
  2242.99999999999,                       !- Density {kg/m3}
  836.999999999999,                       !- Specific Heat {J/kg-K}
  0.9,                                    !- Thermal Absorptance
  0.65,                                   !- Solar Absorptance
  0.65;                                   !- Visible Absorptance

OS:Material,
  {c181637c-cb1a-438d-9764-32f3f29f1c54}, !- Handle
  Wall Insulation [31],                   !- Name
  MediumRough,                            !- Roughness
  0.0337000000000001,                     !- Thickness {m}
  0.0432,                                 !- Conductivity {W/m-K}
  91,                                     !- Density {kg/m3}
  836.999999999999,                       !- Specific Heat {J/kg-K}
  0.9,                                    !- Thermal Absorptance
  0.5,                                    !- Solar Absorptance
  0.5;                                    !- Visible Absorptance

OS:Construction,
  {f8d02cc1-af64-458b-b0f1-2d8d6e56cc9e}, !- Handle
  ASHRAE 189.1-2009 ExtWall Mass ClimateZone 2, !- Name
  ,                                       !- Surface Rendering Name
  {67e8f662-52c9-4471-be56-d07e359c4dd5}, !- Layer 1
  {d9ed59d0-3086-4770-9e55-803d73f22f5b}, !- Layer 2
  {70f977a5-fad5-4c3e-acb6-a69216549a28}, !- Layer 3
  {e09d38c6-9a90-4d3a-beb6-c8035d2d19ba}; !- Layer 4

OS:StandardsInformation:Construction,
  {35ac66a7-f755-4865-9d57-a9641b32c619}, !- Handle
  {f8d02cc1-af64-458b-b0f1-2d8d6e56cc9e}, !- Construction Name
  ExteriorWall,                           !- Intended Surface Type
  Mass;                                   !- Standards Construction Type

OS:Material,
  {70f977a5-fad5-4c3e-acb6-a69216549a28}, !- Handle
  Wall Insulation [35],                   !- Name
  MediumRough,                            !- Roughness
  0.0452,                                 !- Thickness {m}
  0.0432,                                 !- Conductivity {W/m-K}
  91,                                     !- Density {kg/m3}
  836.999999999999,                       !- Specific Heat {J/kg-K}
  0.9,                                    !- Thermal Absorptance
  0.5,                                    !- Solar Absorptance
  0.5;                                    !- Visible Absorptance

OS:Construction,
  {b3d65f1f-ae59-43ea-b47d-7653d6a5286f}, !- Handle
  ASHRAE 189.1-2009 ExtWall Mass ClimateZone 3, !- Name
  ,                                       !- Surface Rendering Name
  {67e8f662-52c9-4471-be56-d07e359c4dd5}, !- Layer 1
  {d9ed59d0-3086-4770-9e55-803d73f22f5b}, !- Layer 2
  {f379eba7-592f-4096-b030-8f86cad98f6d}, !- Layer 3
  {e09d38c6-9a90-4d3a-beb6-c8035d2d19ba}; !- Layer 4

OS:StandardsInformation:Construction,
  {e0df36a9-68ef-42e6-8e11-ade7a21ce677}, !- Handle
  {b3d65f1f-ae59-43ea-b47d-7653d6a5286f}, !- Construction Name
  ExteriorWall,                           !- Intended Surface Type
  Mass;                                   !- Standards Construction Type

OS:Material,
  {f379eba7-592f-4096-b030-8f86cad98f6d}, !- Handle
  Wall Insulation [36],                   !- Name
  MediumRough,                            !- Roughness
  0.0565999999999999,                     !- Thickness {m}
  0.0432,                                 !- Conductivity {W/m-K}
  91,                                     !- Density {kg/m3}
  836.999999999999,                       !- Specific Heat {J/kg-K}
  0.9,                                    !- Thermal Absorptance
  0.5,                                    !- Solar Absorptance
  0.5;                                    !- Visible Absorptance

OS:Construction,
  {10b7637a-a3ef-41da-b672-4c1b6f804ac0}, !- Handle
  ASHRAE 189.1-2009 ExtWall Mass ClimateZone 4, !- Name
  ,                                       !- Surface Rendering Name
  {67e8f662-52c9-4471-be56-d07e359c4dd5}, !- Layer 1
  {d9ed59d0-3086-4770-9e55-803d73f22f5b}, !- Layer 2
  {d6b2d9a2-782b-4504-a291-664b27a82773}, !- Layer 3
  {e09d38c6-9a90-4d3a-beb6-c8035d2d19ba}; !- Layer 4

OS:StandardsInformation:Construction,
  {b69e4a68-c996-4c49-bbf4-adf4bd49565a}, !- Handle
  {10b7637a-a3ef-41da-b672-4c1b6f804ac0}, !- Construction Name
  ExteriorWall,                           !- Intended Surface Type
  Mass;                                   !- Standards Construction Type

OS:Material,
  {d6b2d9a2-782b-4504-a291-664b27a82773}, !- Handle
  Wall Insulation [37],                   !- Name
  MediumRough,                            !- Roughness
  0.0680999999999999,                     !- Thickness {m}
  0.0432,                                 !- Conductivity {W/m-K}
  91,                                     !- Density {kg/m3}
  836.999999999999,                       !- Specific Heat {J/kg-K}
  0.9,                                    !- Thermal Absorptance
  0.5,                                    !- Solar Absorptance
  0.5;                                    !- Visible Absorptance

OS:Construction,
  {1c64ca8c-25cf-4736-8858-d71fd4b35028}, !- Handle
  ASHRAE 189.1-2009 ExtWall Mass ClimateZone 5, !- Name
  ,                                       !- Surface Rendering Name
  {67e8f662-52c9-4471-be56-d07e359c4dd5}, !- Layer 1
  {d9ed59d0-3086-4770-9e55-803d73f22f5b}, !- Layer 2
  {0a2c7fdb-21fb-4de5-b6f9-744eccd2ea53}, !- Layer 3
  {e09d38c6-9a90-4d3a-beb6-c8035d2d19ba}; !- Layer 4

OS:StandardsInformation:Construction,
  {1bfa0277-e714-4829-99b4-1789f2bbed7b}, !- Handle
  {1c64ca8c-25cf-4736-8858-d71fd4b35028}, !- Construction Name
  ExteriorWall,                           !- Intended Surface Type
  Mass;                                   !- Standards Construction Type

OS:Material,
  {0a2c7fdb-21fb-4de5-b6f9-744eccd2ea53}, !- Handle
  Wall Insulation [40],                   !- Name
  MediumRough,                            !- Roughness
  0.0793999999999999,                     !- Thickness {m}
  0.0432,                                 !- Conductivity {W/m-K}
  91,                                     !- Density {kg/m3}
  836.999999999999,                       !- Specific Heat {J/kg-K}
  0.9,                                    !- Thermal Absorptance
  0.5,                                    !- Solar Absorptance
  0.5;                                    !- Visible Absorptance

OS:Construction,
  {a48c86fd-2d57-425b-8ef6-a74bdf4fb186}, !- Handle
  ASHRAE 189.1-2009 ExtWall Mass ClimateZone 6, !- Name
  ,                                       !- Surface Rendering Name
  {67e8f662-52c9-4471-be56-d07e359c4dd5}, !- Layer 1
  {d9ed59d0-3086-4770-9e55-803d73f22f5b}, !- Layer 2
  {b01afa84-9658-4d3a-b756-16bcc34fce3a}, !- Layer 3
  {e09d38c6-9a90-4d3a-beb6-c8035d2d19ba}; !- Layer 4

OS:StandardsInformation:Construction,
  {fb169b42-8de0-4615-96d4-5df4f5b1daad}, !- Handle
  {a48c86fd-2d57-425b-8ef6-a74bdf4fb186}, !- Construction Name
  ExteriorWall,                           !- Intended Surface Type
  Mass;                                   !- Standards Construction Type

OS:Material,
  {b01afa84-9658-4d3a-b756-16bcc34fce3a}, !- Handle
  Wall Insulation [42],                   !- Name
  MediumRough,                            !- Roughness
  0.0913999999999999,                     !- Thickness {m}
  0.0432,                                 !- Conductivity {W/m-K}
  91,                                     !- Density {kg/m3}
  836.999999999999,                       !- Specific Heat {J/kg-K}
  0.9,                                    !- Thermal Absorptance
  0.5,                                    !- Solar Absorptance
  0.5;                                    !- Visible Absorptance

OS:Construction,
  {55e2d7e8-eeeb-4a97-a39a-0eb2d8adc3eb}, !- Handle
  ASHRAE 189.1-2009 ExtWall Mass ClimateZone 7-8, !- Name
  ,                                       !- Surface Rendering Name
  {67e8f662-52c9-4471-be56-d07e359c4dd5}, !- Layer 1
  {d9ed59d0-3086-4770-9e55-803d73f22f5b}, !- Layer 2
  {f0d39aac-da91-4bf3-b042-3347769d833d}, !- Layer 3
  {e09d38c6-9a90-4d3a-beb6-c8035d2d19ba}; !- Layer 4

OS:StandardsInformation:Construction,
  {ff11ddb0-d4cb-483c-9b5f-8d3a9a99de78}, !- Handle
  {55e2d7e8-eeeb-4a97-a39a-0eb2d8adc3eb}, !- Construction Name
  ExteriorWall,                           !- Intended Surface Type
  Mass;                                   !- Standards Construction Type

OS:Material,
  {f0d39aac-da91-4bf3-b042-3347769d833d}, !- Handle
  Wall Insulation [44],                   !- Name
  MediumRough,                            !- Roughness
  0.1104,                                 !- Thickness {m}
  0.0432,                                 !- Conductivity {W/m-K}
  91,                                     !- Density {kg/m3}
  836.999999999999,                       !- Specific Heat {J/kg-K}
  0.9,                                    !- Thermal Absorptance
  0.5,                                    !- Solar Absorptance
  0.5;                                    !- Visible Absorptance

OS:Construction,
  {8a08a476-bacc-4e48-9878-9602f72c801b}, !- Handle
  ASHRAE 189.1-2009 ExtWall Mass ClimateZone alt-res 1, !- Name
  ,                                       !- Surface Rendering Name
  {67e8f662-52c9-4471-be56-d07e359c4dd5}, !- Layer 1
  {d9ed59d0-3086-4770-9e55-803d73f22f5b}, !- Layer 2
  {70f977a5-fad5-4c3e-acb6-a69216549a28}, !- Layer 3
  {e09d38c6-9a90-4d3a-beb6-c8035d2d19ba}; !- Layer 4

OS:StandardsInformation:Construction,
  {419b7a71-0483-46f9-9f44-6798c32fd152}, !- Handle
  {8a08a476-bacc-4e48-9878-9602f72c801b}, !- Construction Name
  ExteriorWall,                           !- Intended Surface Type
  Mass;                                   !- Standards Construction Type

OS:Construction,
  {7d65cfc6-facd-40de-b9a1-c4e680c51650}, !- Handle
  ASHRAE 189.1-2009 ExtWall Mass ClimateZone alt-res 2, !- Name
  ,                                       !- Surface Rendering Name
  {67e8f662-52c9-4471-be56-d07e359c4dd5}, !- Layer 1
  {d9ed59d0-3086-4770-9e55-803d73f22f5b}, !- Layer 2
  {f379eba7-592f-4096-b030-8f86cad98f6d}, !- Layer 3
  {e09d38c6-9a90-4d3a-beb6-c8035d2d19ba}; !- Layer 4

OS:StandardsInformation:Construction,
  {fab45b09-a996-4f95-86bd-66d232a3926f}, !- Handle
  {7d65cfc6-facd-40de-b9a1-c4e680c51650}, !- Construction Name
  ExteriorWall,                           !- Intended Surface Type
  Mass;                                   !- Standards Construction Type

OS:Construction,
  {0aaacb26-2714-46da-9348-d7d2ec57f4a9}, !- Handle
  ASHRAE 189.1-2009 ExtWall Mass ClimateZone alt-res 3, !- Name
  ,                                       !- Surface Rendering Name
  {67e8f662-52c9-4471-be56-d07e359c4dd5}, !- Layer 1
  {d9ed59d0-3086-4770-9e55-803d73f22f5b}, !- Layer 2
  {d6b2d9a2-782b-4504-a291-664b27a82773}, !- Layer 3
  {e09d38c6-9a90-4d3a-beb6-c8035d2d19ba}; !- Layer 4

OS:StandardsInformation:Construction,
  {5210627f-290a-45cb-9d2f-06cd9462c677}, !- Handle
  {0aaacb26-2714-46da-9348-d7d2ec57f4a9}, !- Construction Name
  ExteriorWall,                           !- Intended Surface Type
  Mass;                                   !- Standards Construction Type

OS:Construction,
  {aff130f4-d0af-43bc-91be-43a8032ccc37}, !- Handle
  ASHRAE 189.1-2009 ExtWall Mass ClimateZone alt-res 4, !- Name
  ,                                       !- Surface Rendering Name
  {67e8f662-52c9-4471-be56-d07e359c4dd5}, !- Layer 1
  {d9ed59d0-3086-4770-9e55-803d73f22f5b}, !- Layer 2
  {0a2c7fdb-21fb-4de5-b6f9-744eccd2ea53}, !- Layer 3
  {e09d38c6-9a90-4d3a-beb6-c8035d2d19ba}; !- Layer 4

OS:StandardsInformation:Construction,
  {c70225d8-91e0-4bb5-be4f-b9e7927cb878}, !- Handle
  {aff130f4-d0af-43bc-91be-43a8032ccc37}, !- Construction Name
  ExteriorWall,                           !- Intended Surface Type
  Mass;                                   !- Standards Construction Type

OS:Construction,
  {7e0a8371-bde9-45ff-9575-be208e612341}, !- Handle
  ASHRAE 189.1-2009 ExtWall Mass ClimateZone alt-res 5, !- Name
  ,                                       !- Surface Rendering Name
  {67e8f662-52c9-4471-be56-d07e359c4dd5}, !- Layer 1
  {d9ed59d0-3086-4770-9e55-803d73f22f5b}, !- Layer 2
  {b01afa84-9658-4d3a-b756-16bcc34fce3a}, !- Layer 3
  {e09d38c6-9a90-4d3a-beb6-c8035d2d19ba}; !- Layer 4

OS:StandardsInformation:Construction,
  {fc78404b-ce9c-4263-aaf6-aee52ae5b517}, !- Handle
  {7e0a8371-bde9-45ff-9575-be208e612341}, !- Construction Name
  ExteriorWall,                           !- Intended Surface Type
  Mass;                                   !- Standards Construction Type

OS:Construction,
  {b9f4c809-8f49-4390-870d-ab28808eb0dd}, !- Handle
  ASHRAE 189.1-2009 ExtWall Mass ClimateZone alt-res 6, !- Name
  ,                                       !- Surface Rendering Name
  {67e8f662-52c9-4471-be56-d07e359c4dd5}, !- Layer 1
  {d9ed59d0-3086-4770-9e55-803d73f22f5b}, !- Layer 2
  {f0d39aac-da91-4bf3-b042-3347769d833d}, !- Layer 3
  {e09d38c6-9a90-4d3a-beb6-c8035d2d19ba}; !- Layer 4

OS:StandardsInformation:Construction,
  {1bc2be16-3997-466c-bb97-9b7d221d6a0a}, !- Handle
  {b9f4c809-8f49-4390-870d-ab28808eb0dd}, !- Construction Name
  ExteriorWall,                           !- Intended Surface Type
  Mass;                                   !- Standards Construction Type

OS:Construction,
  {27357a82-43b3-40f3-8193-9307aee092e8}, !- Handle
  ASHRAE 189.1-2009 ExtWall Mass ClimateZone alt-res 7, !- Name
  ,                                       !- Surface Rendering Name
  {67e8f662-52c9-4471-be56-d07e359c4dd5}, !- Layer 1
  {d9ed59d0-3086-4770-9e55-803d73f22f5b}, !- Layer 2
  {f0d39aac-da91-4bf3-b042-3347769d833d}, !- Layer 3
  {e09d38c6-9a90-4d3a-beb6-c8035d2d19ba}; !- Layer 4

OS:StandardsInformation:Construction,
  {3b6ca6e4-524b-4635-ada8-eaf3214c1b65}, !- Handle
  {27357a82-43b3-40f3-8193-9307aee092e8}, !- Construction Name
  ExteriorWall,                           !- Intended Surface Type
  Mass;                                   !- Standards Construction Type

OS:Construction,
  {5a6b7922-0b21-44aa-bc29-f00214f12f85}, !- Handle
  ASHRAE 189.1-2009 ExtWall Mass ClimateZone alt-res 8, !- Name
  ,                                       !- Surface Rendering Name
  {67e8f662-52c9-4471-be56-d07e359c4dd5}, !- Layer 1
  {d9ed59d0-3086-4770-9e55-803d73f22f5b}, !- Layer 2
  {5a464744-c357-4efb-812a-852307059837}, !- Layer 3
  {e09d38c6-9a90-4d3a-beb6-c8035d2d19ba}; !- Layer 4

OS:StandardsInformation:Construction,
  {522a1bbe-3288-4097-86e5-a9e92c254fac}, !- Handle
  {5a6b7922-0b21-44aa-bc29-f00214f12f85}, !- Construction Name