
OS:Version,
  {b83ae731-ec5c-4f55-9036-108032d77410}, !- Handle
  1.3.3;                                  !- Version Identifier

OS:Construction,
  {01837c97-df27-4ecb-b532-bae17e91ff4e}, !- Handle
  ASHRAE 189.1-2009 AtticFloor ClimateZone 1-8, !- Name
  ,                                       !- Surface Rendering Name
  {1c9b153a-f370-42d8-b141-670abb5bb36e}, !- Layer 1
  {44eeff65-0b4c-4573-aeb5-310e087e43f4}, !- Layer 2
  {1c9b153a-f370-42d8-b141-670abb5bb36e}; !- Layer 3

OS:StandardsInformation:Construction,
  {d5212c68-f992-4304-bf0b-5fe391b138f7}, !- Handle
  {01837c97-df27-4ecb-b532-bae17e91ff4e}, !- Construction Name
  AtticFloor,                             !- Intended Surface Type
  WoodFramed;                             !- Standards Construction Type

OS:Material,
  {1c9b153a-f370-42d8-b141-670abb5bb36e}, !- Handle
  1/2IN Gypsum,                           !- Name
  Smooth,                                 !- Roughness
  0.0127,                                 !- Thickness {m}
  0.16,                                   !- Conductivity {W/m-K}
  784.9,                                  !- Density {kg/m3}
  830.000000000001,                       !- Specific Heat {J/kg-K}
  0.9,                                    !- Thermal Absorptance
  0.92,                                   !- Solar Absorptance
  0.92;                                   !- Visible Absorptance

OS:Material,
  {44eeff65-0b4c-4573-aeb5-310e087e43f4}, !- Handle
  AtticFloor Insulation,                  !- Name
  MediumRough,                            !- Roughness
  0.2379,                                 !- Thickness {m}
  0.049,                                  !- Conductivity {W/m-K}
  265,                                    !- Density {kg/m3}
  836.800000000001,                       !- Specific Heat {J/kg-K}
  0.9,                                    !- Thermal Absorptance
  0.7,                                    !- Solar Absorptance
  0.7;                                    !- Visible Absorptance

OS:Construction,
  {1febba1d-b95b-40ee-842d-a9884bcd3970}, !- Handle
  ASHRAE 189.1-2009 ExtRoof IEAD ClimateZone 1, !- Name
  ,                                       !- Surface Rendering Name
  {1689b94f-5bd8-4f04-aa05-907b90e2d817}, !- Layer 1
  {f16d32f4-1269-490c-a3e4-283961fdb2da}, !- Layer 2
  {8712a64e-a5b6-47f2-87f8-b05119030f34}; !- Layer 3

OS:StandardsInformation:Construction,
  {e5e98db9-322e-433e-9dc1-c987e68c1d19}, !- Handle
  {1febba1d-b95b-40ee-842d-a9884bcd3970}, !- Construction Name
  ExteriorRoof,                           !- Intended Surface Type
  IEAD;                                   !- Standards Construction Type

OS:Material,
  {1689b94f-5bd8-4f04-aa05-907b90e2d817}, !- Handle
  Roof Membrane,                          !- Name
  VeryRough,                              !- Roughness
  0.0095,                                 !- Thickness {m}
  0.16,                                   !- Conductivity {W/m-K}
  1121.29,                                !- Density {kg/m3}
  1460,                                   !- Specific Heat {J/kg-K}
  0.9,                                    !- Thermal Absorptance
  0.7,                                    !- Solar Absorptance
  0.7;                                    !- Visible Absorptance

OS:Material,
  {f16d32f4-1269-490c-a3e4-283961fdb2da}, !- Handle
  Roof Insulation [18],                   !- Name
  MediumRough,                            !- Roughness
  0.1693,                                 !- Thickness {m}
  0.049,                                  !- Conductivity {W/m-K}
  265,                                    !- Density {kg/m3}
  836.800000000001,                       !- Specific Heat {J/kg-K}
  0.9,                                    !- Thermal Absorptance
  0.7,                                    !- Solar Absorptance
  0.7;                                    !- Visible Absorptance

OS:Material,
  {8712a64e-a5b6-47f2-87f8-b05119030f34}, !- Handle
  Metal Decking,                          !- Name
  MediumSmooth,                           !- Roughness
  0.0015,                                 !- Thickness {m}
  45.006,                                 !- Conductivity {W/m-K}
  7680,                                   !- Density {kg/m3}
  418.4,                                  !- Specific Heat {J/kg-K}
  0.9,                                    !- Thermal Absorptance
  0.7,                                    !- Solar Absorptance
  0.3;                                    !- Visible Absorptance

OS:Construction,
  {86189f9c-2b7c-4481-b3d5-bc94f1db655d}, !- Handle
  ASHRAE 189.1-2009 ExtRoof IEAD ClimateZone 2-5, !- Name
  ,                                       !- Surface Rendering Name
  {1689b94f-5bd8-4f04-aa05-907b90e2d817}, !- Layer 1
  {0f21870a-0dde-430b-a83a-037a5322cbd1}, !- Layer 2
  {8712a64e-a5b6-47f2-87f8-b05119030f34}; !- Layer 3

OS:StandardsInformation:Construction,
  {496c5d98-8641-4bec-ae19-526eb6ebffae}, !- Handle
  {86189f9c-2b7c-4481-b3d5-bc94f1db655d}, !- Construction Name
  ExteriorRoof,                           !- Intended Surface Type
  IEAD;                                   !- Standards Construction Type

OS:Material,
  {0f21870a-0dde-430b-a83a-037a5322cbd1}, !- Handle
  Roof Insulation [21],                   !- Name
  MediumRough,                            !- Roughness
  0.2105,                                 !- Thickness {m}
  0.049,                                  !- Conductivity {W/m-K}
  265,                                    !- Density {kg/m3}
  836.800000000001,                       !- Specific Heat {J/kg-K}
  0.9,                                    !- Thermal Absorptance
  0.7,                                    !- Solar Absorptance
  0.7;                                    !- Visible Absorptance

OS:Construction,
  {1d0fa0f3-e0a5-44eb-a702-a5d0be191e4a}, !- Handle
  ASHRAE 189.1-2009 ExtRoof IEAD ClimateZone 6, !- Name
  ,                                       !- Surface Rendering Name
  {1689b94f-5bd8-4f04-aa05-907b90e2d817}, !- Layer 1
  {975236cf-9b98-435d-9c7d-bd58348655bf}, !- Layer 2
  {8712a64e-a5b6-47f2-87f8-b05119030f34}; !- Layer 3

OS:StandardsInformation:Construction,
  {54aab983-00f0-42a5-a079-8394a4f4acc4}, !- Handle
  {1d0fa0f3-e0a5-44eb-a702-a5d0be191e4a}, !- Construction Name
  ExteriorRoof,                           !- Intended Surface Type
  IEAD;                                   !- Standards Construction Type

OS:Material,
  {975236cf-9b98-435d-9c7d-bd58348655bf}, !- Handle
  Roof Insulation [24],                   !- Name
  MediumRough,                            !- Roughness
  0.260100000000001,                      !- Thickness {m}
  0.049,                                  !- Conductivity {W/m-K}
  265,                                    !- Density {kg/m3}
  836.800000000001,                       !- Specific Heat {J/kg-K}
  0.9,                                    !- Thermal Absorptance
  0.7,                                    !- Solar Absorptance
  0.7;                                    !- Visible Absorptance

OS:Construction,
  {789c3f08-e70f-473e-b97f-714fad54c9d6}, !- Handle
  ASHRAE 189.1-2009 ExtRoof IEAD ClimateZone 7-8, !- Name
  ,                                       !- Surface Rendering Name
  {1689b94f-5bd8-4f04-aa05-907b90e2d817}, !- Layer 1
  {e592668d-64d6-4e5a-bb44-39b59e74333a}, !- Layer 2
  {8712a64e-a5b6-47f2-87f8-b05119030f34}; !- Layer 3

OS:StandardsInformation:Construction,
  {6335d16e-fda2-4eab-a92a-c37941f7bde0}, !- Handle
  {789c3f08-e70f-473e-b97f-714fad54c9d6}, !- Construction Name
  ExteriorRoof,                           !- Intended Surface Type
  IEAD;                                   !- Standards Construction Type

OS:Material,
  {e592668d-64d6-4e5a-bb44-39b59e74333a}, !- Handle
  Roof Insulation [26],                   !- Name
  MediumRough,                            !- Roughness
  0.2941,                                 !- Thickness {m}
  0.049,                                  !- Conductivity {W/m-K}
  265,                                    !- Density {kg/m3}
  836.800000000001,                       !- Specific Heat {J/kg-K}
  0.9,                                    !- Thermal Absorptance
  0.7,                                    !- Solar Absorptance
  0.7;                                    !- Visible Absorptance

OS:Construction,
  {1aecdc64-2698-4531-a26c-e45c83c7870f}, !- Handle
  ASHRAE 189.1-2009 ExtRoof Metal ClimateZone 1, !- Name
  ,                                       !- Surface Rendering Name
  {45bad2ad-d809-4528-8ec8-80c560e80264}, !- Layer 1
  {7532230e-7ef9-41af-b2f6-988bb221c163}; !- Layer 2

OS:StandardsInformation:Construction,
  {5f1eaf3b-ce20-4b41-9918-134fbf6370dd}, !- Handle
  {1aecdc64-2698-4531-a26c-e45c83c7870f}, !- Construction Name
  ExteriorRoof,                           !- Intended Surface Type
  Metal;                                  !- Standards Construction Type

OS:Material,
  {45bad2ad-d809-4528-8ec8-80c560e80264}, !- Handle
  Metal Roofing,                          !- Name
  MediumSmooth,                           !- Roughness
  0.0015,                                 !- Thickness {m}
  45.006,                                 !- Conductivity {W/m-K}
  7680,                                   !- Density {kg/m3}
  418.4,                                  !- Specific Heat {J/kg-K}
  0.9,                                    !- Thermal Absorptance
  0.3,                                    !- Solar Absorptance
  0.3;                                    !- Visible Absorptance

OS:Material,
  {7532230e-7ef9-41af-b2f6-988bb221c163}, !- Handle
  Roof Insulation [19],                   !- Name
  MediumRough,                            !- Roughness
  0.1868,                                 !- Thickness {m}
  0.049,                                  !- Conductivity {W/m-K}
  265,                                    !- Density {kg/m3}
  836.800000000001,                       !- Specific Heat {J/kg-K}
  0.9,                                    !- Thermal Absorptance
  0.7,                                    !- Solar Absorptance
  0.7;                                    !- Visible Absorptance

OS:Construction,
  {36cf31c3-e0b2-4eaf-a7d1-6bee2c5841f9}, !- Handle
  ASHRAE 189.1-2009 ExtRoof Metal ClimateZone 2-5, !- Name
  ,                                       !- Surface Rendering Name
  {45bad2ad-d809-4528-8ec8-80c560e80264}, !- Layer 1
  {a10b820f-3919-4854-b72e-98b48411f0f2}; !- Layer 2

OS:StandardsInformation:Construction,
  {954ec713-0730-43ba-a7d8-ff1478c6ed29}, !- Handle
  {36cf31c3-e0b2-4eaf-a7d1-6bee2c5841f9}, !- Construction Name
  ExteriorRoof,                           !- Intended Surface Type
  Metal;                                  !- Standards Construction Type

OS:Material,
  {a10b820f-3919-4854-b72e-98b48411f0f2}, !- Handle
  Roof Insulation [22],                   !- Name
  MediumRough,                            !- Roughness
  0.2358,                                 !- Thickness {m}
  0.049,                                  !- Conductivity {W/m-K}
  265,                                    !- Density {kg/m3}
  836.800000000001,                       !- Specific Heat {J/kg-K}
  0.9,                                    !- Thermal Absorptance
  0.7,                                    !- Solar Absorptance
  0.7;                                    !- Visible Absorptance

OS:Construction,
  {cb35af9d-fd6c-4529-9f8f-88e84a56c0b3}, !- Handle
  ASHRAE 189.1-2009 ExtRoof Metal ClimateZone 6, !- Name
  ,                                       !- Surface Rendering Name
  {45bad2ad-d809-4528-8ec8-80c560e80264}, !- Layer 1
  {0c751254-f1d5-447e-8ea4-d8b0c35878f2}; !- Layer 2

OS:StandardsInformation:Construction,
  {4f05f545-dc09-4df7-a0cf-0abd02edef73}, !- Handle
  {cb35af9d-fd6c-4529-9f8f-88e84a56c0b3}, !- Construction Name
  ExteriorRoof,                           !- Intended Surface Type
  Metal;                                  !- Standards Construction Type

OS:Material,
  {0c751254-f1d5-447e-8ea4-d8b0c35878f2}, !- Handle
  Roof Insulation [25],                   !- Name
  MediumRough,                            !- Roughness
  0.263,                                  !- Thickness {m}
  0.049,                                  !- Conductivity {W/m-K}
  265,                                    !- Density {kg/m3}
  836.800000000001,                       !- Specific Heat {J/kg-K}
  0.9,                                    !- Thermal Absorptance
  0.7,                                    !- Solar Absorptance
  0.7;                                    !- Visible Absorptance

OS:Construction,
  {af6f35af-3ad2-4f5f-90bd-793993b2ac6e}, !- Handle
  ASHRAE 189.1-2009 ExtRoof Metal ClimateZone 7-8, !- Name
  ,                                       !- Surface Rendering Name
  {45bad2ad-d809-4528-8ec8-80c560e80264}, !- Layer 1
  {d0fe6dd4-aaea-469c-8a78-d9a0a683e3ee}; !- Layer 2

OS:StandardsInformation:Construction,
  {278aeaab-2fc3-480d-9c23-3789e342d562}, !- Handle
  {af6f35af-3ad2-4f5f-90bd-793993b2ac6e}, !- Construction Name
  ExteriorRoof,                           !- Intended Surface Type
  Metal;                                  !- Standards Construction Type

OS:Material,
  {d0fe6dd4-aaea-469c-8a78-d9a0a683e3ee}, !- Handle
  Roof Insulation [27],                   !- Name
  MediumRough,                            !- Roughness
  0.297000000000001,                      !- Thickness {m}
  0.049,                                  !- Conductivity {W/m-K}
  265,                                    !- Density {kg/m3}
  836.800000000001,                       !- Specific Heat {J/kg-K}
  0.9,                                    !- Thermal Absorptance
  0.7,                                    !- Solar Absorptance
  0.7;                                    !- Visible Absorptance

OS:Construction,
  {fd86e1d5-a1c8-48d8-be2c-52e256714513}, !- Handle
  ASHRAE 189.1-2009 ExtWall Mass ClimateZone 1, !- Name
  ,                                       !- Surface Rendering Name
  {4a351e0c-4743-462d-bd25-447ba9408269}, !- Layer 1
  {be223809-a901-4c64-9578-d17d38d8aa10}, !- Layer 2
  {1b639905-8351-4ac5-885d-54dd0dcf6b6d}, !- Layer 3
  {1c9b153a-f370-42d8-b141-670abb5bb36e}; !- Layer 4

OS:StandardsInformation:Construction,
  {8eb4d57c-5cc8-4aa8-8341-4613bd0faa96}, !- Handle
  {fd86e1d5-a1c8-48d8-be2c-52e256714513}, !- Construction Name
  ExteriorWall,                           !- Intended Surface Type
  Mass;                                   !- Standards Construction Type

OS:Material,
  {4a351e0c-4743-462d-bd25-447ba9408269}, !- Handle
  1IN Stucco,                             !- Name
  Smooth,                                 !- Roughness
  0.0253,                                 !- Thickness {m}
  0.691799999999999,                      !- Conductivity {W/m-K}
  1858,                                   !- Density {kg/m3}
  836.999999999999,                       !- Specific Heat {J/kg-K}
  0.9,                                    !- Thermal Absorptance
  0.92,                                   !- Solar Absorptance
  0.92;                                   !- Visible Absorptance

OS:Material,
  {be223809-a901-4c64-9578-d17d38d8aa10}, !- Handle
  8IN Concrete HW,                        !- Name
  MediumRough,                            !- Roughness
  0.2033,                                 !- Thickness {m}
  1.72959999999999,                       !- Conductivity {W/m-K}
  2242.99999999999,                       !- Density {kg/m3}
  836.999999999999,                       !- Specific Heat {J/kg-K}
  0.9,                                    !- Thermal Absorptance
  0.65,                                   !- Solar Absorptance
  0.65;                                   !- Visible Absorptance

OS:Material,
  {1b639905-8351-4ac5-885d-54dd0dcf6b6d}, !- Handle
  Wall Insulation [31],                   !- Name
  MediumRough,                            !- Roughness
  0.0337000000000001,                     !- Thickness {m}
  0.0432,                                 !- Conductivity {W/m-K}
  91,                                     !- Density {kg/m3}
  836.999999999999,                       !- Specific Heat {J/kg-K}
  0.9,                                    !- Thermal Absorptance
  0.5,                                    !- Solar Absorptance
  0.5;                                    !- Visible Absorptance

OS:Construction,
  {ed0b3f41-a97b-4ffc-9f85-38d209069e97}, !- Handle
  ASHRAE 189.1-2009 ExtWall Mass ClimateZone 2, !- Name
  ,                                       !- Surface Rendering Name
  {4a351e0c-4743-462d-bd25-447ba9408269}, !- Layer 1
  {be223809-a901-4c64-9578-d17d38d8aa10}, !- Layer 2
  {799f65a6-f731-4c5d-ac5a-93d4f3d83931}, !- Layer 3
  {1c9b153a-f370-42d8-b141-670abb5bb36e}; !- Layer 4

OS:StandardsInformation:Construction,
  {bab60f01-6150-4e83-9196-3134765e1da0}, !- Handle
  {ed0b3f41-a97b-4ffc-9f85-38d209069e97}, !- Construction Name
  ExteriorWall,                           !- Intended Surface Type
  Mass;                                   !- Standards Construction Type

OS:Material,
  {799f65a6-f731-4c5d-ac5a-93d4f3d83931}, !- Handle
  Wall Insulation [35],                   !- Name
  MediumRough,                            !- Roughness
  0.0452,                                 !- Thickness {m}
  0.0432,                                 !- Conductivity {W/m-K}
  91,                                     !- Density {kg/m3}
  836.999999999999,                       !- Specific Heat {J/kg-K}
  0.9,                                    !- Thermal Absorptance
  0.5,                                    !- Solar Absorptance
  0.5;                                    !- Visible Absorptance

OS:Construction,
  {81156733-8c03-4d46-90cb-3f3f305eef14}, !- Handle
  ASHRAE 189.1-2009 ExtWall Mass ClimateZone 3, !- Name
  ,                                       !- Surface Rendering Name
  {4a351e0c-4743-462d-bd25-447ba9408269}, !- Layer 1
  {be223809-a901-4c64-9578-d17d38d8aa10}, !- Layer 2
  {e720e910-66f8-401c-af90-ed706cbbed33}, !- Layer 3
  {1c9b153a-f370-42d8-b141-670abb5bb36e}; !- Layer 4

OS:StandardsInformation:Construction,
  {4c252430-f1fb-4a16-9843-e93d1df39441}, !- Handle
  {81156733-8c03-4d46-90cb-3f3f305eef14}, !- Construction Name
  ExteriorWall,                           !- Intended Surface Type
  Mass;                                   !- Standards Construction Type

OS:Material,
  {e720e910-66f8-401c-af90-ed706cbbed33}, !- Handle
  Wall Insulation [36],                   !- Name
  MediumRough,                            !- Roughness
  0.0565999999999999,                     !- Thickness {m}
  0.0432,                                 !- Conductivity {W/m-K}
  91,                                     !- Density {kg/m3}
  836.999999999999,                       !- Specific Heat {J/kg-K}
  0.9,                                    !- Thermal Absorptance
  0.5,                                    !- Solar Absorptance
  0.5;                                    !- Visible Absorptance

OS:Construction,
  {eda0344d-bab0-4202-aae8-6a1359d26491}, !- Handle
  ASHRAE 189.1-2009 ExtWall Mass ClimateZone 4, !- Name
  ,                                       !- Surface Rendering Name
  {4a351e0c-4743-462d-bd25-447ba9408269}, !- Layer 1
  {be223809-a901-4c64-9578-d17d38d8aa10}, !- Layer 2
  {d255e690-89f6-48c7-ab87-525d9b59e846}, !- Layer 3
  {1c9b153a-f370-42d8-b141-670abb5bb36e}; !- Layer 4

OS:StandardsInformation:Construction,
  {43aec0c2-d1ac-41e7-b348-ff287733560c}, !- Handle
  {eda0344d-bab0-4202-aae8-6a1359d26491}, !- Construction Name
  ExteriorWall,                           !- Intended Surface Type
  Mass;                                   !- Standards Construction Type

OS:Material,
  {d255e690-89f6-48c7-ab87-525d9b59e846}, !- Handle
  Wall Insulation [37],                   !- Name
  MediumRough,                            !- Roughness
  0.0680999999999999,                     !- Thickness {m}
  0.0432,                                 !- Conductivity {W/m-K}
  91,                                     !- Density {kg/m3}
  836.999999999999,                       !- Specific Heat {J/kg-K}
  0.9,                                    !- Thermal Absorptance
  0.5,                                    !- Solar Absorptance
  0.5;                                    !- Visible Absorptance

OS:Construction,
  {df1a0a5d-8e4e-40a5-8d8f-0fb980de152e}, !- Handle
  ASHRAE 189.1-2009 ExtWall Mass ClimateZone 5, !- Name
  ,                                       !- Surface Rendering Name
  {4a351e0c-4743-462d-bd25-447ba9408269}, !- Layer 1
  {be223809-a901-4c64-9578-d17d38d8aa10}, !- Layer 2
  {e9311a15-a166-41d5-bcba-1753886ad7e1}, !- Layer 3
  {1c9b153a-f370-42d8-b141-670abb5bb36e}; !- Layer 4

OS:StandardsInformation:Construction,
  {7e8e1333-df13-415c-98ac-729e001e91ce}, !- Handle
  {df1a0a5d-8e4e-40a5-8d8f-0fb980de152e}, !- Construction Name
  ExteriorWall,                           !- Intended Surface Type
  Mass;                                   !- Standards Construction Type

OS:Material,
  {e9311a15-a166-41d5-bcba-1753886ad7e1}, !- Handle
  Wall Insulation [40],                   !- Name
  MediumRough,                            !- Roughness
  0.0793999999999999,                     !- Thickness {m}
  0.0432,                                 !- Conductivity {W/m-K}
  91,                                     !- Density {kg/m3}
  836.999999999999,                       !- Specific Heat {J/kg-K}
  0.9,                                    !- Thermal Absorptance
  0.5,                                    !- Solar Absorptance
  0.5;                                    !- Visible Absorptance

OS:Construction,
  {4cc3ebd9-8507-49cc-a4dd-1cba2a877af2}, !- Handle
  ASHRAE 189.1-2009 ExtWall Mass ClimateZone 6, !- Name
  ,                                       !- Surface Rendering Name
  {4a351e0c-4743-462d-bd25-447ba9408269}, !- Layer 1
  {be223809-a901-4c64-9578-d17d38d8aa10}, !- Layer 2
  {27ac1569-cc2a-43e9-9a18-eb6684e9153b}, !- Layer 3
  {1c9b153a-f370-42d8-b141-670abb5bb36e}; !- Layer 4

OS:StandardsInformation:Construction,
  {a079254d-3797-45a8-b1b7-f297c9666833}, !- Handle
  {4cc3ebd9-8507-49cc-a4dd-1cba2a877af2}, !- Construction Name
  ExteriorWall,                           !- Intended Surface Type
  Mass;                                   !- Standards Construction Type

OS:Material,
  {27ac1569-cc2a-43e9-9a18-eb6684e9153b}, !- Handle
  Wall Insulation [42],                   !- Name
  MediumRough,                            !- Roughness
  0.0913999999999999,                     !- Thickness {m}
  0.0432,                                 !- Conductivity {W/m-K}
  91,                                     !- Density {kg/m3}
  836.999999999999,                       !- Specific Heat {J/kg-K}
  0.9,                                    !- Thermal Absorptance
  0.5,                                    !- Solar Absorptance
  0.5;                                    !- Visible Absorptance

OS:Construction,
  {3cb732b6-eec2-4c1c-ada3-2e214e6c3c0f}, !- Handle
  ASHRAE 189.1-2009 ExtWall Mass ClimateZone 7-8, !- Name
  ,                                       !- Surface Rendering Name
  {4a351e0c-4743-462d-bd25-447ba9408269}, !- Layer 1
  {be223809-a901-4c64-9578-d17d38d8aa10}, !- Layer 2
  {5f120a18-1b21-4019-8204-f98035d51c23}, !- Layer 3
  {1c9b153a-f370-42d8-b141-670abb5bb36e}; !- Layer 4

OS:StandardsInformation:Construction,
  {8a4801e5-b3f0-436d-8a4f-fee73e9836af}, !- Handle
  {3cb732b6-eec2-4c1c-ada3-2e214e6c3c0f}, !- Construction Name
  ExteriorWall,                           !- Intended Surface Type
  Mass;                                   !- Standards Construction Type

OS:Material,
  {5f120a18-1b21-4019-8204-f98035d51c23}, !- Handle
  Wall Insulation [44],                   !- Name
  MediumRough,                            !- Roughness
  0.1104,                                 !- Thickness {m}
  0.0432,                                 !- Conductivity {W/m-K}
  91,                                     !- Density {kg/m3}
  836.999999999999,                       !- Specific Heat {J/kg-K}
  0.9,                                    !- Thermal Absorptance
  0.5,                                    !- Solar Absorptance
  0.5;                                    !- Visible Absorptance

OS:Construction,
  {9c056f29-0c80-4d6a-a83b-c08d45842cb9}, !- Handle
  ASHRAE 189.1-2009 ExtWall Mass ClimateZone alt-res 1, !- Name
  ,                                       !- Surface Rendering Name
  {4a351e0c-4743-462d-bd25-447ba9408269}, !- Layer 1
  {be223809-a901-4c64-9578-d17d38d8aa10}, !- Layer 2
  {799f65a6-f731-4c5d-ac5a-93d4f3d83931}, !- Layer 3
  {1c9b153a-f370-42d8-b141-670abb5bb36e}; !- Layer 4

OS:StandardsInformation:Construction,
  {92f9eb0f-b5fc-4c36-bb6b-96c21c8f9955}, !- Handle
  {9c056f29-0c80-4d6a-a83b-c08d45842cb9}, !- Construction Name
  ExteriorWall,                           !- Intended Surface Type
  Mass;                                   !- Standards Construction Type

OS:Construction,
  {3621657d-8aff-45e5-b8d8-107b48cb8ad8}, !- Handle
  ASHRAE 189.1-2009 ExtWall Mass ClimateZone alt-res 2, !- Name
  ,                                       !- Surface Rendering Name
  {4a351e0c-4743-462d-bd25-447ba9408269}, !- Layer 1
  {be223809-a901-4c64-9578-d17d38d8aa10}, !- Layer 2
  {e720e910-66f8-401c-af90-ed706cbbed33}, !- Layer 3
  {1c9b153a-f370-42d8-b141-670abb5bb36e}; !- Layer 4

OS:StandardsInformation:Construction,
  {11f7322d-1fd4-495b-a512-95f962074cc1}, !- Handle
  {3621657d-8aff-45e5-b8d8-107b48cb8ad8}, !- Construction Name
  ExteriorWall,                           !- Intended Surface Type
  Mass;                                   !- Standards Construction Type

OS:Construction,
  {b981334f-20fc-4f91-bfd0-1a0b4018eba3}, !- Handle
  ASHRAE 189.1-2009 ExtWall Mass ClimateZone alt-res 3, !- Name
  ,                                       !- Surface Rendering Name
  {4a351e0c-4743-462d-bd25-447ba9408269}, !- Layer 1
  {be223809-a901-4c64-9578-d17d38d8aa10}, !- Layer 2
  {d255e690-89f6-48c7-ab87-525d9b59e846}, !- Layer 3
  {1c9b153a-f370-42d8-b141-670abb5bb36e}; !- Layer 4

OS:StandardsInformation:Construction,
  {f2c21392-a6e6-4f76-b809-8a546bc0d14c}, !- Handle
  {b981334f-20fc-4f91-bfd0-1a0b4018eba3}, !- Construction Name
  ExteriorWall,                           !- Intended Surface Type
  Mass;                                   !- Standards Construction Type

OS:Construction,
  {a323b290-63cf-4bc8-bf2b-c8188a0b9bc9}, !- Handle
  ASHRAE 189.1-2009 ExtWall Mass ClimateZone alt-res 4, !- Name
  ,                                       !- Surface Rendering Name
  {4a351e0c-4743-462d-bd25-447ba9408269}, !- Layer 1
  {be223809-a901-4c64-9578-d17d38d8aa10}, !- Layer 2
  {e9311a15-a166-41d5-bcba-1753886ad7e1}, !- Layer 3
  {1c9b153a-f370-42d8-b141-670abb5bb36e}; !- Layer 4

OS:StandardsInformation:Construction,
  {52751e3c-cca4-4c0e-96d8-b33bcdf170c0}, !- Handle
  {a323b290-63cf-4bc8-bf2b-c8188a0b9bc9}, !- Construction Name
  ExteriorWall,                           !- Intended Surface Type
  Mass;                                   !- Standards Construction Type

OS:Construction,
  {640651fd-89dd-4612-beec-08409d56fb95}, !- Handle
  ASHRAE 189.1-2009 ExtWall Mass ClimateZone alt-res 5, !- Name
  ,                                       !- Surface Rendering Name
  {4a351e0c-4743-462d-bd25-447ba9408269}, !- Layer 1
  {be223809-a901-4c64-9578-d17d38d8aa10}, !- Layer 2
  {27ac1569-cc2a-43e9-9a18-eb6684e9153b}, !- Layer 3
  {1c9b153a-f370-42d8-b141-670abb5bb36e}; !- Layer 4

OS:StandardsInformation:Construction,
  {d1f6eb48-b389-488d-a257-d05322fe4962}, !- Handle
  {640651fd-89dd-4612-beec-08409d56fb95}, !- Construction Name
  ExteriorWall,                           !- Intended Surface Type
  Mass;                                   !- Standards Construction Type

OS:Construction,
  {9f94061d-f4e8-414f-b485-0299ce29df24}, !- Handle
  ASHRAE 189.1-2009 ExtWall Mass ClimateZone alt-res 6, !- Name
  ,                                       !- Surface Rendering Name
  {4a351e0c-4743-462d-bd25-447ba9408269}, !- Layer 1
  {be223809-a901-4c64-9578-d17d38d8aa10}, !- Layer 2
  {5f120a18-1b21-4019-8204-f98035d51c23}, !- Layer 3
  {1c9b153a-f370-42d8-b141-670abb5bb36e}; !- Layer 4

OS:StandardsInformation:Construction,
  {25af3539-9303-424f-848a-c22ff3ec6202}, !- Handle
  {9f94061d-f4e8-414f-b485-0299ce29df24}, !- Construction Name
  ExteriorWall,                           !- Intended Surface Type
  Mass;                                   !- Standards Construction Type

OS:Construction,
  {b7767d74-3f81-4fdc-a2f3-9d2b38fd7ec7}, !- Handle
  ASHRAE 189.1-2009 ExtWall Mass ClimateZone alt-res 7, !- Name
  ,                                       !- Surface Rendering Name
  {4a351e0c-4743-462d-bd25-447ba9408269}, !- Layer 1
  {be223809-a901-4c64-9578-d17d38d8aa10}, !- Layer 2
  {5f120a18-1b21-4019-8204-f98035d51c23}, !- Layer 3
  {1c9b153a-f370-42d8-b141-670abb5bb36e}; !- Layer 4

OS:StandardsInformation:Construction,
  {aa8622c6-e5e2-45c9-92e0-cded17444a43}, !- Handle
  {b7767d74-3f81-4fdc-a2f3-9d2b38fd7ec7}, !- Construction Name
  ExteriorWall,                           !- Intended Surface Type
  Mass;                                   !- Standards Construction Type

OS:Construction,
  {6df68442-ceaa-44e5-81f6-0dba2736e8b6}, !- Handle
  ASHRAE 189.1-2009 ExtWall Mass ClimateZone alt-res 8, !- Name
  ,                                       !- Surface Rendering Name
  {4a351e0c-4743-462d-bd25-447ba9408269}, !- Layer 1
  {be223809-a901-4c64-9578-d17d38d8aa10}, !- Layer 2
  {33dd2ea2-538f-4242-8610-a601136d05c6}, !- Layer 3
  {1c9b153a-f370-42d8-b141-670abb5bb36e}; !- Layer 4

OS:StandardsInformation:Construction,
  {af0fa705-3819-4f47-9e06-c487d7e8fe26}, !- Handle
  {6df68442-ceaa-44e5-81f6-0dba2736e8b6}, !- Construction Name
  ExteriorWall,                           !- Intended Surface Type
  Mass;                                   !- Standards Construction Type

OS:Material,
  {33dd2ea2-538f-4242-8610-a601136d05c6}, !- Handle