
OS:Version,
  {541c7a00-860f-4195-bd79-8b39d57c40de}, !- Handle
  1.2.3;                                  !- Version Identifier

OS:Construction,
  {c3272214-cf16-447c-ba95-726cebd1a974}, !- Handle
  ASHRAE 189.1-2009 AtticFloor ClimateZone 1-8, !- Name
  ,                                       !- Surface Rendering Name
  {505bf8d6-38ff-40eb-949c-e6aaf062eb47}, !- Layer 1
  {abcaa5bd-eddb-4e8d-8e01-f3b0dcc40fa9}, !- Layer 2
  {505bf8d6-38ff-40eb-949c-e6aaf062eb47}; !- Layer 3

OS:StandardsInformation:Construction,
  {b0fec367-fe53-4e4c-8cd5-e9b35afb08f8}, !- Handle
  {c3272214-cf16-447c-ba95-726cebd1a974}, !- Construction Name
  AtticFloor,                             !- Intended Surface Type
  WoodFramed;                             !- Standards Construction Type

OS:Material,
  {505bf8d6-38ff-40eb-949c-e6aaf062eb47}, !- Handle
  1/2IN Gypsum,                           !- Name
  Smooth,                                 !- Roughness
  0.0127,                                 !- Thickness {m}
  0.16,                                   !- Conductivity {W/m-K}
  784.9,                                  !- Density {kg/m3}
  830.000000000001,                       !- Specific Heat {J/kg-K}
  0.9,                                    !- Thermal Absorptance
  0.92,                                   !- Solar Absorptance
  0.92;                                   !- Visible Absorptance

OS:Material,
  {abcaa5bd-eddb-4e8d-8e01-f3b0dcc40fa9}, !- Handle
  AtticFloor Insulation,                  !- Name
  MediumRough,                            !- Roughness
  0.2379,                                 !- Thickness {m}
  0.049,                                  !- Conductivity {W/m-K}
  265,                                    !- Density {kg/m3}
  836.800000000001,                       !- Specific Heat {J/kg-K}
  0.9,                                    !- Thermal Absorptance
  0.7,                                    !- Solar Absorptance
  0.7;                                    !- Visible Absorptance

OS:Construction,
  {773a8044-c855-41ed-8145-14002806cdd0}, !- Handle
  ASHRAE 189.1-2009 ExtRoof IEAD ClimateZone 1, !- Name
  ,                                       !- Surface Rendering Name
  {a0ca12e0-c656-4e10-9b52-6fccb42299b1}, !- Layer 1
  {1a56ddc2-c9ae-48bd-80d8-73858345c495}, !- Layer 2
  {52cb407a-90b3-4e23-8671-0057a9838ac5}; !- Layer 3

OS:StandardsInformation:Construction,
  {c97f6497-2c58-4412-bad6-906e49849c60}, !- Handle
  {773a8044-c855-41ed-8145-14002806cdd0}, !- Construction Name
  ExteriorRoof,                           !- Intended Surface Type
  IEAD;                                   !- Standards Construction Type

OS:Material,
  {a0ca12e0-c656-4e10-9b52-6fccb42299b1}, !- Handle
  Roof Membrane,                          !- Name
  VeryRough,                              !- Roughness
  0.0095,                                 !- Thickness {m}
  0.16,                                   !- Conductivity {W/m-K}
  1121.29,                                !- Density {kg/m3}
  1460,                                   !- Specific Heat {J/kg-K}
  0.9,                                    !- Thermal Absorptance
  0.7,                                    !- Solar Absorptance
  0.7;                                    !- Visible Absorptance

OS:Material,
  {1a56ddc2-c9ae-48bd-80d8-73858345c495}, !- Handle
  Roof Insulation [18],                   !- Name
  MediumRough,                            !- Roughness
  0.1693,                                 !- Thickness {m}
  0.049,                                  !- Conductivity {W/m-K}
  265,                                    !- Density {kg/m3}
  836.800000000001,                       !- Specific Heat {J/kg-K}
  0.9,                                    !- Thermal Absorptance
  0.7,                                    !- Solar Absorptance
  0.7;                                    !- Visible Absorptance

OS:Material,
  {52cb407a-90b3-4e23-8671-0057a9838ac5}, !- Handle
  Metal Decking,                          !- Name
  MediumSmooth,                           !- Roughness
  0.0015,                                 !- Thickness {m}
  45.006,                                 !- Conductivity {W/m-K}
  7680,                                   !- Density {kg/m3}
  418.4,                                  !- Specific Heat {J/kg-K}
  0.9,                                    !- Thermal Absorptance
  0.7,                                    !- Solar Absorptance
  0.3;                                    !- Visible Absorptance

OS:Construction,
  {5f8c6600-b478-449e-b156-9ab7103f5156}, !- Handle
  ASHRAE 189.1-2009 ExtRoof IEAD ClimateZone 2-5, !- Name
  ,                                       !- Surface Rendering Name
  {a0ca12e0-c656-4e10-9b52-6fccb42299b1}, !- Layer 1
  {b473436c-cb92-45d7-b116-c678522613e0}, !- Layer 2
  {52cb407a-90b3-4e23-8671-0057a9838ac5}; !- Layer 3

OS:StandardsInformation:Construction,
  {a38812c3-ad8c-4adb-8509-f2ef5a7e33a1}, !- Handle
  {5f8c6600-b478-449e-b156-9ab7103f5156}, !- Construction Name
  ExteriorRoof,                           !- Intended Surface Type
  IEAD;                                   !- Standards Construction Type

OS:Material,
  {b473436c-cb92-45d7-b116-c678522613e0}, !- Handle
  Roof Insulation [21],                   !- Name
  MediumRough,                            !- Roughness
  0.2105,                                 !- Thickness {m}
  0.049,                                  !- Conductivity {W/m-K}
  265,                                    !- Density {kg/m3}
  836.800000000001,                       !- Specific Heat {J/kg-K}
  0.9,                                    !- Thermal Absorptance
  0.7,                                    !- Solar Absorptance
  0.7;                                    !- Visible Absorptance

OS:Construction,
  {0083d7b6-5831-49c9-9497-92339671971d}, !- Handle
  ASHRAE 189.1-2009 ExtRoof IEAD ClimateZone 6, !- Name
  ,                                       !- Surface Rendering Name
  {a0ca12e0-c656-4e10-9b52-6fccb42299b1}, !- Layer 1
  {7bf0d80c-2493-4120-bbb4-24d69aa37b60}, !- Layer 2
  {52cb407a-90b3-4e23-8671-0057a9838ac5}; !- Layer 3

OS:StandardsInformation:Construction,
  {9889be8c-d2fd-4aea-a227-bbebfb3158f2}, !- Handle
  {0083d7b6-5831-49c9-9497-92339671971d}, !- Construction Name
  ExteriorRoof,                           !- Intended Surface Type
  IEAD;                                   !- Standards Construction Type

OS:Material,
  {7bf0d80c-2493-4120-bbb4-24d69aa37b60}, !- Handle
  Roof Insulation [24],                   !- Name
  MediumRough,                            !- Roughness
  0.260100000000001,                      !- Thickness {m}
  0.049,                                  !- Conductivity {W/m-K}
  265,                                    !- Density {kg/m3}
  836.800000000001,                       !- Specific Heat {J/kg-K}
  0.9,                                    !- Thermal Absorptance
  0.7,                                    !- Solar Absorptance
  0.7;                                    !- Visible Absorptance

OS:Construction,
  {c74275d0-a6d2-480d-8c76-7dcb253e936f}, !- Handle
  ASHRAE 189.1-2009 ExtRoof IEAD ClimateZone 7-8, !- Name
  ,                                       !- Surface Rendering Name
  {a0ca12e0-c656-4e10-9b52-6fccb42299b1}, !- Layer 1
  {5aa8defa-a3b2-404b-a428-ae80d327ddad}, !- Layer 2
  {52cb407a-90b3-4e23-8671-0057a9838ac5}; !- Layer 3

OS:StandardsInformation:Construction,
  {fd7e6072-69bf-4df4-90f0-ab55e8de15bb}, !- Handle
  {c74275d0-a6d2-480d-8c76-7dcb253e936f}, !- Construction Name
  ExteriorRoof,                           !- Intended Surface Type
  IEAD;                                   !- Standards Construction Type

OS:Material,
  {5aa8defa-a3b2-404b-a428-ae80d327ddad}, !- Handle
  Roof Insulation [26],                   !- Name
  MediumRough,                            !- Roughness
  0.2941,                                 !- Thickness {m}
  0.049,                                  !- Conductivity {W/m-K}
  265,                                    !- Density {kg/m3}
  836.800000000001,                       !- Specific Heat {J/kg-K}
  0.9,                                    !- Thermal Absorptance
  0.7,                                    !- Solar Absorptance
  0.7;                                    !- Visible Absorptance

OS:Construction,
  {48408385-ed6a-40e6-b5e6-ceef74f8f3c8}, !- Handle
  ASHRAE 189.1-2009 ExtRoof Metal ClimateZone 1, !- Name
  ,                                       !- Surface Rendering Name
  {3ff66f91-8109-4333-a3a4-624c6427938a}, !- Layer 1
  {8cbf5d1e-d9b3-4276-b32f-0e83d99ca3cf}; !- Layer 2

OS:StandardsInformation:Construction,
  {113a4a64-9c75-4367-b85d-042976ab668b}, !- Handle
  {48408385-ed6a-40e6-b5e6-ceef74f8f3c8}, !- Construction Name
  ExteriorRoof,                           !- Intended Surface Type
  Metal;                                  !- Standards Construction Type

OS:Material,
  {3ff66f91-8109-4333-a3a4-624c6427938a}, !- Handle
  Metal Roofing,                          !- Name
  MediumSmooth,                           !- Roughness
  0.0015,                                 !- Thickness {m}
  45.006,                                 !- Conductivity {W/m-K}
  7680,                                   !- Density {kg/m3}
  418.4,                                  !- Specific Heat {J/kg-K}
  0.9,                                    !- Thermal Absorptance
  0.3,                                    !- Solar Absorptance
  0.3;                                    !- Visible Absorptance

OS:Material,
  {8cbf5d1e-d9b3-4276-b32f-0e83d99ca3cf}, !- Handle
  Roof Insulation [19],                   !- Name
  MediumRough,                            !- Roughness
  0.1868,                                 !- Thickness {m}
  0.049,                                  !- Conductivity {W/m-K}
  265,                                    !- Density {kg/m3}
  836.800000000001,                       !- Specific Heat {J/kg-K}
  0.9,                                    !- Thermal Absorptance
  0.7,                                    !- Solar Absorptance
  0.7;                                    !- Visible Absorptance

OS:Construction,
  {186aa813-a157-4a4e-98cf-c6138b4b0aff}, !- Handle
  ASHRAE 189.1-2009 ExtRoof Metal ClimateZone 2-5, !- Name
  ,                                       !- Surface Rendering Name
  {3ff66f91-8109-4333-a3a4-624c6427938a}, !- Layer 1
  {48535133-14d9-4254-b95c-c8b0f5bd46d7}; !- Layer 2

OS:StandardsInformation:Construction,
  {954c821a-1ded-41e7-8175-c5535c419311}, !- Handle
  {186aa813-a157-4a4e-98cf-c6138b4b0aff}, !- Construction Name
  ExteriorRoof,                           !- Intended Surface Type
  Metal;                                  !- Standards Construction Type

OS:Material,
  {48535133-14d9-4254-b95c-c8b0f5bd46d7}, !- Handle
  Roof Insulation [22],                   !- Name
  MediumRough,                            !- Roughness
  0.2358,                                 !- Thickness {m}
  0.049,                                  !- Conductivity {W/m-K}
  265,                                    !- Density {kg/m3}
  836.800000000001,                       !- Specific Heat {J/kg-K}
  0.9,                                    !- Thermal Absorptance
  0.7,                                    !- Solar Absorptance
  0.7;                                    !- Visible Absorptance

OS:Construction,
  {97d6670c-fb97-4ba0-a5d1-9d66299cd99f}, !- Handle
  ASHRAE 189.1-2009 ExtRoof Metal ClimateZone 6, !- Name
  ,                                       !- Surface Rendering Name
  {3ff66f91-8109-4333-a3a4-624c6427938a}, !- Layer 1
  {717f617a-bacc-41de-b335-f00f65d4b1ef}; !- Layer 2

OS:StandardsInformation:Construction,
  {983b72fe-ced5-4c92-b892-24d1ec722bf7}, !- Handle
  {97d6670c-fb97-4ba0-a5d1-9d66299cd99f}, !- Construction Name
  ExteriorRoof,                           !- Intended Surface Type
  Metal;                                  !- Standards Construction Type

OS:Material,
  {717f617a-bacc-41de-b335-f00f65d4b1ef}, !- Handle
  Roof Insulation [25],                   !- Name
  MediumRough,                            !- Roughness
  0.263,                                  !- Thickness {m}
  0.049,                                  !- Conductivity {W/m-K}
  265,                                    !- Density {kg/m3}
  836.800000000001,                       !- Specific Heat {J/kg-K}
  0.9,                                    !- Thermal Absorptance
  0.7,                                    !- Solar Absorptance
  0.7;                                    !- Visible Absorptance

OS:Construction,
  {f599eafb-e9ea-4852-9bdd-0843a44699f0}, !- Handle
  ASHRAE 189.1-2009 ExtRoof Metal ClimateZone 7-8, !- Name
  ,                                       !- Surface Rendering Name
  {3ff66f91-8109-4333-a3a4-624c6427938a}, !- Layer 1
  {766431c3-a380-4c6a-a9e8-00b156dd59f2}; !- Layer 2

OS:StandardsInformation:Construction,
  {57f7a4d9-477e-4719-b5f9-0b53bfa9cad6}, !- Handle
  {f599eafb-e9ea-4852-9bdd-0843a44699f0}, !- Construction Name
  ExteriorRoof,                           !- Intended Surface Type
  Metal;                                  !- Standards Construction Type

OS:Material,
  {766431c3-a380-4c6a-a9e8-00b156dd59f2}, !- Handle
  Roof Insulation [27],                   !- Name
  MediumRough,                            !- Roughness
  0.297000000000001,                      !- Thickness {m}
  0.049,                                  !- Conductivity {W/m-K}
  265,                                    !- Density {kg/m3}
  836.800000000001,                       !- Specific Heat {J/kg-K}
  0.9,                                    !- Thermal Absorptance
  0.7,                                    !- Solar Absorptance
  0.7;                                    !- Visible Absorptance

OS:Construction,
  {a0dd3a58-4d80-4b99-9641-bd2732fcc984}, !- Handle
  ASHRAE 189.1-2009 ExtWall Mass ClimateZone 1, !- Name
  ,                                       !- Surface Rendering Name
  {87e6f4ab-bc63-4e45-86df-dbe84382cd52}, !- Layer 1
  {6befafb8-2030-4069-b201-6d1569b7b5b5}, !- Layer 2
  {a4cd806a-d246-474b-b899-8de502422396}, !- Layer 3
  {505bf8d6-38ff-40eb-949c-e6aaf062eb47}; !- Layer 4

OS:StandardsInformation:Construction,
  {8df4d447-ef03-4eca-aaec-519c1e3383d4}, !- Handle
  {a0dd3a58-4d80-4b99-9641-bd2732fcc984}, !- Construction Name
  ExteriorWall,                           !- Intended Surface Type
  Mass;                                   !- Standards Construction Type

OS:Material,
  {87e6f4ab-bc63-4e45-86df-dbe84382cd52}, !- Handle
  1IN Stucco,                             !- Name
  Smooth,                                 !- Roughness
  0.0253,                                 !- Thickness {m}
  0.691799999999999,                      !- Conductivity {W/m-K}
  1858,                                   !- Density {kg/m3}
  836.999999999999,                       !- Specific Heat {J/kg-K}
  0.9,                                    !- Thermal Absorptance
  0.92,                                   !- Solar Absorptance
  0.92;                                   !- Visible Absorptance

OS:Material,
  {6befafb8-2030-4069-b201-6d1569b7b5b5}, !- Handle
  8IN Concrete HW,                        !- Name
  MediumRough,                            !- Roughness
  0.2033,                                 !- Thickness {m}
  1.72959999999999,                       !- Conductivity {W/m-K}
  2242.99999999999,                       !- Density {kg/m3}
  836.999999999999,                       !- Specific Heat {J/kg-K}
  0.9,                                    !- Thermal Absorptance
  0.65,                                   !- Solar Absorptance
  0.65;                                   !- Visible Absorptance

OS:Material,
  {a4cd806a-d246-474b-b899-8de502422396}, !- Handle
  Wall Insulation [31],                   !- Name
  MediumRough,                            !- Roughness
  0.0337000000000001,                     !- Thickness {m}
  0.0432,                                 !- Conductivity {W/m-K}
  91,                                     !- Density {kg/m3}
  836.999999999999,                       !- Specific Heat {J/kg-K}
  0.9,                                    !- Thermal Absorptance
  0.5,                                    !- Solar Absorptance
  0.5;                                    !- Visible Absorptance

OS:Construction,
  {95adeb60-b533-4906-83bf-ba3793a024ba}, !- Handle
  ASHRAE 189.1-2009 ExtWall Mass ClimateZone 2, !- Name
  ,                                       !- Surface Rendering Name
  {87e6f4ab-bc63-4e45-86df-dbe84382cd52}, !- Layer 1
  {6befafb8-2030-4069-b201-6d1569b7b5b5}, !- Layer 2
  {d8935d3d-a048-4b3a-a2ec-b6dd72f81906}, !- Layer 3
  {505bf8d6-38ff-40eb-949c-e6aaf062eb47}; !- Layer 4

OS:StandardsInformation:Construction,
  {af9408b3-c3ea-4da2-9675-d1703ac309b3}, !- Handle
  {95adeb60-b533-4906-83bf-ba3793a024ba}, !- Construction Name
  ExteriorWall,                           !- Intended Surface Type
  Mass;                                   !- Standards Construction Type

OS:Material,
  {d8935d3d-a048-4b3a-a2ec-b6dd72f81906}, !- Handle
  Wall Insulation [35],                   !- Name
  MediumRough,                            !- Roughness
  0.0452,                                 !- Thickness {m}
  0.0432,                                 !- Conductivity {W/m-K}
  91,                                     !- Density {kg/m3}
  836.999999999999,                       !- Specific Heat {J/kg-K}
  0.9,                                    !- Thermal Absorptance
  0.5,                                    !- Solar Absorptance
  0.5;                                    !- Visible Absorptance

OS:Construction,
  {83ff23ed-a30a-438d-a4e4-1db0d24e68a6}, !- Handle
  ASHRAE 189.1-2009 ExtWall Mass ClimateZone 3, !- Name
  ,                                       !- Surface Rendering Name
  {87e6f4ab-bc63-4e45-86df-dbe84382cd52}, !- Layer 1
  {6befafb8-2030-4069-b201-6d1569b7b5b5}, !- Layer 2
  {ce06e953-de05-4a42-82f0-dedcbd2a8b24}, !- Layer 3
  {505bf8d6-38ff-40eb-949c-e6aaf062eb47}; !- Layer 4

OS:StandardsInformation:Construction,
  {adf1ef8f-c8d7-4627-b267-5fef22f6a2ac}, !- Handle
  {83ff23ed-a30a-438d-a4e4-1db0d24e68a6}, !- Construction Name
  ExteriorWall,                           !- Intended Surface Type
  Mass;                                   !- Standards Construction Type

OS:Material,
  {ce06e953-de05-4a42-82f0-dedcbd2a8b24}, !- Handle
  Wall Insulation [36],                   !- Name
  MediumRough,                            !- Roughness
  0.0565999999999999,                     !- Thickness {m}
  0.0432,                                 !- Conductivity {W/m-K}
  91,                                     !- Density {kg/m3}
  836.999999999999,                       !- Specific Heat {J/kg-K}
  0.9,                                    !- Thermal Absorptance
  0.5,                                    !- Solar Absorptance
  0.5;                                    !- Visible Absorptance

OS:Construction,
  {3f618b58-cb5e-463c-8115-936293436d5a}, !- Handle
  ASHRAE 189.1-2009 ExtWall Mass ClimateZone 4, !- Name
  ,                                       !- Surface Rendering Name
  {87e6f4ab-bc63-4e45-86df-dbe84382cd52}, !- Layer 1
  {6befafb8-2030-4069-b201-6d1569b7b5b5}, !- Layer 2
  {5c495cc5-7e05-4861-836a-473797516280}, !- Layer 3
  {505bf8d6-38ff-40eb-949c-e6aaf062eb47}; !- Layer 4

OS:StandardsInformation:Construction,
  {7f69a0e5-6a3f-4cef-b707-1311b800451f}, !- Handle
  {3f618b58-cb5e-463c-8115-936293436d5a}, !- Construction Name
  ExteriorWall,                           !- Intended Surface Type
  Mass;                                   !- Standards Construction Type

OS:Material,
  {5c495cc5-7e05-4861-836a-473797516280}, !- Handle
  Wall Insulation [37],                   !- Name
  MediumRough,                            !- Roughness
  0.0680999999999999,                     !- Thickness {m}
  0.0432,                                 !- Conductivity {W/m-K}
  91,                                     !- Density {kg/m3}
  836.999999999999,                       !- Specific Heat {J/kg-K}
  0.9,                                    !- Thermal Absorptance
  0.5,                                    !- Solar Absorptance
  0.5;                                    !- Visible Absorptance

OS:Construction,
  {ccee7b3f-f46f-49d7-84d9-e80307c78b22}, !- Handle
  ASHRAE 189.1-2009 ExtWall Mass ClimateZone 5, !- Name
  ,                                       !- Surface Rendering Name
  {87e6f4ab-bc63-4e45-86df-dbe84382cd52}, !- Layer 1
  {6befafb8-2030-4069-b201-6d1569b7b5b5}, !- Layer 2
  {ec01e15d-6337-466c-8bbd-22d5cd76352f}, !- Layer 3
  {505bf8d6-38ff-40eb-949c-e6aaf062eb47}; !- Layer 4

OS:StandardsInformation:Construction,
  {7263bbdc-d2b4-4d03-a515-9bfa15bdb035}, !- Handle
  {ccee7b3f-f46f-49d7-84d9-e80307c78b22}, !- Construction Name
  ExteriorWall,                           !- Intended Surface Type
  Mass;                                   !- Standards Construction Type

OS:Material,
  {ec01e15d-6337-466c-8bbd-22d5cd76352f}, !- Handle
  Wall Insulation [40],                   !- Name
  MediumRough,                            !- Roughness
  0.0793999999999999,                     !- Thickness {m}
  0.0432,                                 !- Conductivity {W/m-K}
  91,                                     !- Density {kg/m3}
  836.999999999999,                       !- Specific Heat {J/kg-K}
  0.9,                                    !- Thermal Absorptance
  0.5,                                    !- Solar Absorptance
  0.5;                                    !- Visible Absorptance

OS:Construction,
  {40e91a9b-8bb9-448f-be6c-6c8e24ea02cd}, !- Handle
  ASHRAE 189.1-2009 ExtWall Mass ClimateZone 6, !- Name
  ,                                       !- Surface Rendering Name
  {87e6f4ab-bc63-4e45-86df-dbe84382cd52}, !- Layer 1
  {6befafb8-2030-4069-b201-6d1569b7b5b5}, !- Layer 2
  {e0b26def-3215-46c6-9667-62f6f3da6628}, !- Layer 3
  {505bf8d6-38ff-40eb-949c-e6aaf062eb47}; !- Layer 4

OS:StandardsInformation:Construction,
  {03449c52-2fe5-41b6-8f84-63f8640d2171}, !- Handle
  {40e91a9b-8bb9-448f-be6c-6c8e24ea02cd}, !- Construction Name
  ExteriorWall,                           !- Intended Surface Type
  Mass;                                   !- Standards Construction Type

OS:Material,
  {e0b26def-3215-46c6-9667-62f6f3da6628}, !- Handle
  Wall Insulation [42],                   !- Name
  MediumRough,                            !- Roughness
  0.0913999999999999,                     !- Thickness {m}
  0.0432,                                 !- Conductivity {W/m-K}
  91,                                     !- Density {kg/m3}
  836.999999999999,                       !- Specific Heat {J/kg-K}
  0.9,                                    !- Thermal Absorptance
  0.5,                                    !- Solar Absorptance
  0.5;                                    !- Visible Absorptance

OS:Construction,
  {e2728dbb-9442-49d8-9e25-f297e4fec6c4}, !- Handle
  ASHRAE 189.1-2009 ExtWall Mass ClimateZone 7-8, !- Name
  ,                                       !- Surface Rendering Name
  {87e6f4ab-bc63-4e45-86df-dbe84382cd52}, !- Layer 1
  {6befafb8-2030-4069-b201-6d1569b7b5b5}, !- Layer 2
  {81316e5e-3679-4aeb-b090-c565d8b1cedd}, !- Layer 3
  {505bf8d6-38ff-40eb-949c-e6aaf062eb47}; !- Layer 4

OS:StandardsInformation:Construction,
  {2ced24cd-d5f7-4870-b4c3-c1e304843155}, !- Handle
  {e2728dbb-9442-49d8-9e25-f297e4fec6c4}, !- Construction Name
  ExteriorWall,                           !- Intended Surface Type
  Mass;                                   !- Standards Construction Type

OS:Material,
  {81316e5e-3679-4aeb-b090-c565d8b1cedd}, !- Handle
  Wall Insulation [44],                   !- Name
  MediumRough,                            !- Roughness
  0.1104,                                 !- Thickness {m}
  0.0432,                                 !- Conductivity {W/m-K}
  91,                                     !- Density {kg/m3}
  836.999999999999,                       !- Specific Heat {J/kg-K}
  0.9,                                    !- Thermal Absorptance
  0.5,                                    !- Solar Absorptance
  0.5;                                    !- Visible Absorptance

OS:Construction,
  {0787fa18-e895-4ba8-af1c-9028e322b935}, !- Handle
  ASHRAE 189.1-2009 ExtWall Mass ClimateZone alt-res 1, !- Name
  ,                                       !- Surface Rendering Name
  {87e6f4ab-bc63-4e45-86df-dbe84382cd52}, !- Layer 1
  {6befafb8-2030-4069-b201-6d1569b7b5b5}, !- Layer 2
  {d8935d3d-a048-4b3a-a2ec-b6dd72f81906}, !- Layer 3
  {505bf8d6-38ff-40eb-949c-e6aaf062eb47}; !- Layer 4

OS:StandardsInformation:Construction,
  {639a7e38-c22f-49f2-9b3b-9c1e93462093}, !- Handle
  {0787fa18-e895-4ba8-af1c-9028e322b935}, !- Construction Name
  ExteriorWall,                           !- Intended Surface Type
  Mass;                                   !- Standards Construction Type

OS:Construction,
  {d35db60c-0b1d-49b5-9be1-829559bbb3a9}, !- Handle
  ASHRAE 189.1-2009 ExtWall Mass ClimateZone alt-res 2, !- Name
  ,                                       !- Surface Rendering Name
  {87e6f4ab-bc63-4e45-86df-dbe84382cd52}, !- Layer 1
  {6befafb8-2030-4069-b201-6d1569b7b5b5}, !- Layer 2
  {ce06e953-de05-4a42-82f0-dedcbd2a8b24}, !- Layer 3
  {505bf8d6-38ff-40eb-949c-e6aaf062eb47}; !- Layer 4

OS:StandardsInformation:Construction,
  {7fb149df-65e3-4ec8-bde2-4cd1aec0b332}, !- Handle
  {d35db60c-0b1d-49b5-9be1-829559bbb3a9}, !- Construction Name
  ExteriorWall,                           !- Intended Surface Type
  Mass;                                   !- Standards Construction Type

OS:Construction,
  {b2cd7b90-dc62-4c0e-b5ef-408db4cce784}, !- Handle
  ASHRAE 189.1-2009 ExtWall Mass ClimateZone alt-res 3, !- Name
  ,                                       !- Surface Rendering Name
  {87e6f4ab-bc63-4e45-86df-dbe84382cd52}, !- Layer 1
  {6befafb8-2030-4069-b201-6d1569b7b5b5}, !- Layer 2
  {5c495cc5-7e05-4861-836a-473797516280}, !- Layer 3
  {505bf8d6-38ff-40eb-949c-e6aaf062eb47}; !- Layer 4

OS:StandardsInformation:Construction,
  {33890be5-e28b-423f-a097-cce0602db1d0}, !- Handle
  {b2cd7b90-dc62-4c0e-b5ef-408db4cce784}, !- Construction Name
  ExteriorWall,                           !- Intended Surface Type
  Mass;                                   !- Standards Construction Type

OS:Construction,
  {571f9d3c-d4e4-421e-aaab-a6678e9ebf5d}, !- Handle
  ASHRAE 189.1-2009 ExtWall Mass ClimateZone alt-res 4, !- Name
  ,                                       !- Surface Rendering Name
  {87e6f4ab-bc63-4e45-86df-dbe84382cd52}, !- Layer 1
  {6befafb8-2030-4069-b201-6d1569b7b5b5}, !- Layer 2
  {ec01e15d-6337-466c-8bbd-22d5cd76352f}, !- Layer 3
  {505bf8d6-38ff-40eb-949c-e6aaf062eb47}; !- Layer 4

OS:StandardsInformation:Construction,
  {e5fd597d-2faf-459f-b839-32c8e099918b}, !- Handle
  {571f9d3c-d4e4-421e-aaab-a6678e9ebf5d}, !- Construction Name
  ExteriorWall,                           !- Intended Surface Type
  Mass;                                   !- Standards Construction Type

OS:Construction,
  {f41c91bc-917e-46d4-9d0f-c54833411a1c}, !- Handle
  ASHRAE 189.1-2009 ExtWall Mass ClimateZone alt-res 5, !- Name
  ,                                       !- Surface Rendering Name
  {87e6f4ab-bc63-4e45-86df-dbe84382cd52}, !- Layer 1
  {6befafb8-2030-4069-b201-6d1569b7b5b5}, !- Layer 2
  {e0b26def-3215-46c6-9667-62f6f3da6628}, !- Layer 3
  {505bf8d6-38ff-40eb-949c-e6aaf062eb47}; !- Layer 4

OS:StandardsInformation:Construction,
  {7a187fd3-8c5d-4a8a-ad77-1a0a23552685}, !- Handle
  {f41c91bc-917e-46d4-9d0f-c54833411a1c}, !- Construction Name
  ExteriorWall,                           !- Intended Surface Type
  Mass;                                   !- Standards Construction Type

OS:Construction,
  {73a218e5-52ec-445a-b9b7-2af023047e85}, !- Handle
  ASHRAE 189.1-2009 ExtWall Mass ClimateZone alt-res 6, !- Name
  ,                                       !- Surface Rendering Name
  {87e6f4ab-bc63-4e45-86df-dbe84382cd52}, !- Layer 1
  {6befafb8-2030-4069-b201-6d1569b7b5b5}, !- Layer 2
  {81316e5e-3679-4aeb-b090-c565d8b1cedd}, !- Layer 3
  {505bf8d6-38ff-40eb-949c-e6aaf062eb47}; !- Layer 4

OS:StandardsInformation:Construction,
  {2b721328-1ea5-4845-bf1e-fafc3e138e33}, !- Handle
  {73a218e5-52ec-445a-b9b7-2af023047e85}, !- Construction Name
  ExteriorWall,                           !- Intended Surface Type
  Mass;                                   !- Standards Construction Type

OS:Construction,
  {6f28fe60-259c-47cc-8f0e-d9cd4aff9b52}, !- Handle
  ASHRAE 189.1-2009 ExtWall Mass ClimateZone alt-res 7, !- Name
  ,                                       !- Surface Rendering Name
  {87e6f4ab-bc63-4e45-86df-dbe84382cd52}, !- Layer 1
  {6befafb8-2030-4069-b201-6d1569b7b5b5}, !- Layer 2
  {81316e5e-3679-4aeb-b090-c565d8b1cedd}, !- Layer 3
  {505bf8d6-38ff-40eb-949c-e6aaf062eb47}; !- Layer 4

OS:StandardsInformation:Construction,
  {772167b5-f01e-40ed-b228-954eaa8605fc}, !- Handle
  {6f28fe60-259c-47cc-8f0e-d9cd4aff9b52}, !- Construction Name
  ExteriorWall,                           !- Intended Surface Type
  Mass;                                   !- Standards Construction Type

OS:Construction,
  {63f924be-575e-4368-b017-71774e064150}, !- Handle
  ASHRAE 189.1-2009 ExtWall Mass ClimateZone alt-res 8, !- Name
  ,                                       !- Surface Rendering Name
  {87e6f4ab-bc63-4e45-86df-dbe84382cd52}, !- Layer 1
  {6befafb8-2030-4069-b201-6d1569b7b5b5}, !- Layer 2
  {2e850f09-21bf-4790-b10f-86e11c8a80f9}, !- Layer 3
  {505bf8d6-38ff-40eb-949c-e6aaf062eb47}; !- Layer 4

OS:StandardsInformation:Construction,
  {165c6290-a41e-4b5c-a7f5-4f2ece907c12}, !- Handle
  {63f924be-575e-4368-b017-71774e064150}, !- Construction Name
  ExteriorWall,                           !- Intended Surface Type
  Mass;                                   !- Standards Construction Type

OS:Material,
  {2e850f09-21bf-4790-b10f-86e11c8a80f9}, !- Handle