
OS:Version,
  {b056a7b7-5566-4cf1-b882-a6859e3af205}, !- Handle
  1.4.0;                                  !- Version Identifier

OS:Construction,
  {e32be7de-78cc-492d-94d3-00827100cf3a}, !- Handle
  ASHRAE 189.1-2009 AtticFloor ClimateZone 1-8, !- Name
  ,                                       !- Surface Rendering Name
  {d628601a-bce6-48cf-a128-df8f58414192}, !- Layer 1
  {fc32196e-cab0-45ab-9170-ccda67c63e0d}, !- Layer 2
  {d628601a-bce6-48cf-a128-df8f58414192}; !- Layer 3

OS:StandardsInformation:Construction,
  {9606a18f-ee81-4aa8-905d-0bc492fbf975}, !- Handle
  {e32be7de-78cc-492d-94d3-00827100cf3a}, !- Construction Name
  AtticFloor,                             !- Intended Surface Type
  WoodFramed;                             !- Standards Construction Type

OS:Material,
  {d628601a-bce6-48cf-a128-df8f58414192}, !- Handle
  1/2IN Gypsum,                           !- Name
  Smooth,                                 !- Roughness
  0.0127,                                 !- Thickness {m}
  0.16,                                   !- Conductivity {W/m-K}
  784.9,                                  !- Density {kg/m3}
  830.000000000001,                       !- Specific Heat {J/kg-K}
  0.9,                                    !- Thermal Absorptance
  0.4,                                    !- Solar Absorptance
  0.4;                                    !- Visible Absorptance

OS:Material,
  {fc32196e-cab0-45ab-9170-ccda67c63e0d}, !- Handle
  AtticFloor Insulation,                  !- Name
  MediumRough,                            !- Roughness
  0.2379,                                 !- Thickness {m}
  0.049,                                  !- Conductivity {W/m-K}
  265,                                    !- Density {kg/m3}
  836.800000000001,                       !- Specific Heat {J/kg-K}
  0.9,                                    !- Thermal Absorptance
  0.7,                                    !- Solar Absorptance
  0.7;                                    !- Visible Absorptance

OS:Construction,
  {1954240e-9c14-4d34-a656-0c29897ded48}, !- Handle
  ASHRAE 189.1-2009 ExtRoof IEAD ClimateZone 1, !- Name
  ,                                       !- Surface Rendering Name
  {6a4c09cf-8c46-42fe-8db2-12a54d3d7358}, !- Layer 1
  {87ce1d02-65af-4a6d-9787-af64b6d35fee}, !- Layer 2
  {80c3e6f3-1836-4345-9e9b-4334edba5ba6}; !- Layer 3

OS:StandardsInformation:Construction,
  {12de8d36-66ef-40aa-894b-835238bc89c6}, !- Handle
  {1954240e-9c14-4d34-a656-0c29897ded48}, !- Construction Name
  ExteriorRoof,                           !- Intended Surface Type
  IEAD;                                   !- Standards Construction Type

OS:Material,
  {6a4c09cf-8c46-42fe-8db2-12a54d3d7358}, !- Handle
  Roof Membrane,                          !- Name
  VeryRough,                              !- Roughness
  0.0095,                                 !- Thickness {m}
  0.16,                                   !- Conductivity {W/m-K}
  1121.29,                                !- Density {kg/m3}
  1460,                                   !- Specific Heat {J/kg-K}
  0.9,                                    !- Thermal Absorptance
  0.7,                                    !- Solar Absorptance
  0.7;                                    !- Visible Absorptance

OS:Material,
  {87ce1d02-65af-4a6d-9787-af64b6d35fee}, !- Handle
  Roof Insulation [18],                   !- Name
  MediumRough,                            !- Roughness
  0.1693,                                 !- Thickness {m}
  0.049,                                  !- Conductivity {W/m-K}
  265,                                    !- Density {kg/m3}
  836.800000000001,                       !- Specific Heat {J/kg-K}
  0.9,                                    !- Thermal Absorptance
  0.7,                                    !- Solar Absorptance
  0.7;                                    !- Visible Absorptance

OS:Material,
  {80c3e6f3-1836-4345-9e9b-4334edba5ba6}, !- Handle
  Metal Decking,                          !- Name
  MediumSmooth,                           !- Roughness
  0.0015,                                 !- Thickness {m}
  45.006,                                 !- Conductivity {W/m-K}
  7680,                                   !- Density {kg/m3}
  418.4,                                  !- Specific Heat {J/kg-K}
  0.9,                                    !- Thermal Absorptance
  0.6,                                    !- Solar Absorptance
  0.6;                                    !- Visible Absorptance

OS:Construction,
  {171547e9-8759-44f9-ae66-b215f121d0b3}, !- Handle
  ASHRAE 189.1-2009 ExtRoof IEAD ClimateZone 2-5, !- Name
  ,                                       !- Surface Rendering Name
  {6a4c09cf-8c46-42fe-8db2-12a54d3d7358}, !- Layer 1
  {612dd104-3ed4-4b11-97af-6fba682ae6d1}, !- Layer 2
  {80c3e6f3-1836-4345-9e9b-4334edba5ba6}; !- Layer 3

OS:StandardsInformation:Construction,
  {3b13854d-a7f0-4d18-bcde-2de06b9a03d7}, !- Handle
  {171547e9-8759-44f9-ae66-b215f121d0b3}, !- Construction Name
  ExteriorRoof,                           !- Intended Surface Type
  IEAD;                                   !- Standards Construction Type

OS:Material,
  {612dd104-3ed4-4b11-97af-6fba682ae6d1}, !- Handle
  Roof Insulation [21],                   !- Name
  MediumRough,                            !- Roughness
  0.2105,                                 !- Thickness {m}
  0.049,                                  !- Conductivity {W/m-K}
  265,                                    !- Density {kg/m3}
  836.800000000001,                       !- Specific Heat {J/kg-K}
  0.9,                                    !- Thermal Absorptance
  0.7,                                    !- Solar Absorptance
  0.7;                                    !- Visible Absorptance

OS:Construction,
  {dab1a71a-8f87-423a-a2f2-a8bd2043def9}, !- Handle
  ASHRAE 189.1-2009 ExtRoof IEAD ClimateZone 6, !- Name
  ,                                       !- Surface Rendering Name
  {6a4c09cf-8c46-42fe-8db2-12a54d3d7358}, !- Layer 1
  {d762596b-1bb1-4393-9473-7a15f5aa6d40}, !- Layer 2
  {80c3e6f3-1836-4345-9e9b-4334edba5ba6}; !- Layer 3

OS:StandardsInformation:Construction,
  {26a81e7b-9bed-47d8-a50e-834072e5117a}, !- Handle
  {dab1a71a-8f87-423a-a2f2-a8bd2043def9}, !- Construction Name
  ExteriorRoof,                           !- Intended Surface Type
  IEAD;                                   !- Standards Construction Type

OS:Material,
  {d762596b-1bb1-4393-9473-7a15f5aa6d40}, !- Handle
  Roof Insulation [24],                   !- Name
  MediumRough,                            !- Roughness
  0.260100000000001,                      !- Thickness {m}
  0.049,                                  !- Conductivity {W/m-K}
  265,                                    !- Density {kg/m3}
  836.800000000001,                       !- Specific Heat {J/kg-K}
  0.9,                                    !- Thermal Absorptance
  0.7,                                    !- Solar Absorptance
  0.7;                                    !- Visible Absorptance

OS:Construction,
  {4cd3a705-06df-4018-b150-71e3b6cd7f79}, !- Handle
  ASHRAE 189.1-2009 ExtRoof IEAD ClimateZone 7-8, !- Name
  ,                                       !- Surface Rendering Name
  {6a4c09cf-8c46-42fe-8db2-12a54d3d7358}, !- Layer 1
  {2a5e9ab3-e53f-441b-9c2e-1bf83100191d}, !- Layer 2
  {80c3e6f3-1836-4345-9e9b-4334edba5ba6}; !- Layer 3

OS:StandardsInformation:Construction,
  {a03327a1-60f5-4f01-b575-e2fe324978a9}, !- Handle
  {4cd3a705-06df-4018-b150-71e3b6cd7f79}, !- Construction Name
  ExteriorRoof,                           !- Intended Surface Type
  IEAD;                                   !- Standards Construction Type

OS:Material,
  {2a5e9ab3-e53f-441b-9c2e-1bf83100191d}, !- Handle
  Roof Insulation [26],                   !- Name
  MediumRough,                            !- Roughness
  0.2941,                                 !- Thickness {m}
  0.049,                                  !- Conductivity {W/m-K}
  265,                                    !- Density {kg/m3}
  836.800000000001,                       !- Specific Heat {J/kg-K}
  0.9,                                    !- Thermal Absorptance
  0.7,                                    !- Solar Absorptance
  0.7;                                    !- Visible Absorptance

OS:Construction,
  {63307ab2-2f08-4c2c-99ce-56425291ecd2}, !- Handle
  ASHRAE 189.1-2009 ExtRoof Metal ClimateZone 1, !- Name
  ,                                       !- Surface Rendering Name
  {83a570ef-9922-496e-8930-ce9d4fc098d2}, !- Layer 1
  {75ee353a-4f17-44ff-ab53-717322d02872}, !- Layer 2
  {80c3e6f3-1836-4345-9e9b-4334edba5ba6}; !- Layer 3

OS:StandardsInformation:Construction,
  {fb138d42-9f80-417c-bf51-022760954cdd}, !- Handle
  {63307ab2-2f08-4c2c-99ce-56425291ecd2}, !- Construction Name
  ExteriorRoof,                           !- Intended Surface Type
  Metal;                                  !- Standards Construction Type

OS:Material,
  {83a570ef-9922-496e-8930-ce9d4fc098d2}, !- Handle
  Metal Roofing,                          !- Name
  MediumSmooth,                           !- Roughness
  0.0015,                                 !- Thickness {m}
  45.006,                                 !- Conductivity {W/m-K}
  7680,                                   !- Density {kg/m3}
  418.4,                                  !- Specific Heat {J/kg-K}
  0.9,                                    !- Thermal Absorptance
  0.6,                                    !- Solar Absorptance
  0.6;                                    !- Visible Absorptance

OS:Material,
  {75ee353a-4f17-44ff-ab53-717322d02872}, !- Handle
  Roof Insulation [19],                   !- Name
  MediumRough,                            !- Roughness
  0.1868,                                 !- Thickness {m}
  0.049,                                  !- Conductivity {W/m-K}
  265,                                    !- Density {kg/m3}
  836.800000000001,                       !- Specific Heat {J/kg-K}
  0.9,                                    !- Thermal Absorptance
  0.7,                                    !- Solar Absorptance
  0.7;                                    !- Visible Absorptance

OS:Construction,
  {49cd72cc-e0fe-4bd1-9dd7-93ea4b8c8029}, !- Handle
  ASHRAE 189.1-2009 ExtRoof Metal ClimateZone 2-5, !- Name
  ,                                       !- Surface Rendering Name
  {83a570ef-9922-496e-8930-ce9d4fc098d2}, !- Layer 1
  {23244d40-7adf-4f1b-957c-f7523c176d38}, !- Layer 2
  {80c3e6f3-1836-4345-9e9b-4334edba5ba6}; !- Layer 3

OS:StandardsInformation:Construction,
  {69794446-cb38-49e2-a179-788d1c3c38f8}, !- Handle
  {49cd72cc-e0fe-4bd1-9dd7-93ea4b8c8029}, !- Construction Name
  ExteriorRoof,                           !- Intended Surface Type
  Metal;                                  !- Standards Construction Type

OS:Material,
  {23244d40-7adf-4f1b-957c-f7523c176d38}, !- Handle
  Roof Insulation [22],                   !- Name
  MediumRough,                            !- Roughness
  0.2358,                                 !- Thickness {m}
  0.049,                                  !- Conductivity {W/m-K}
  265,                                    !- Density {kg/m3}
  836.800000000001,                       !- Specific Heat {J/kg-K}
  0.9,                                    !- Thermal Absorptance
  0.7,                                    !- Solar Absorptance
  0.7;                                    !- Visible Absorptance

OS:Construction,
  {dc3cd546-74f8-4008-96f8-28933ec17025}, !- Handle
  ASHRAE 189.1-2009 ExtRoof Metal ClimateZone 6, !- Name
  ,                                       !- Surface Rendering Name
  {83a570ef-9922-496e-8930-ce9d4fc098d2}, !- Layer 1
  {1c19fdea-1efb-453d-b483-5e1fd00b213a}, !- Layer 2
  {80c3e6f3-1836-4345-9e9b-4334edba5ba6}; !- Layer 3

OS:StandardsInformation:Construction,
  {6987a7eb-1a87-4650-bcda-8197516cac6e}, !- Handle
  {dc3cd546-74f8-4008-96f8-28933ec17025}, !- Construction Name
  ExteriorRoof,                           !- Intended Surface Type
  Metal;                                  !- Standards Construction Type

OS:Material,
  {1c19fdea-1efb-453d-b483-5e1fd00b213a}, !- Handle
  Roof Insulation [25],                   !- Name
  MediumRough,                            !- Roughness
  0.263,                                  !- Thickness {m}
  0.049,                                  !- Conductivity {W/m-K}
  265,                                    !- Density {kg/m3}
  836.800000000001,                       !- Specific Heat {J/kg-K}
  0.9,                                    !- Thermal Absorptance
  0.7,                                    !- Solar Absorptance
  0.7;                                    !- Visible Absorptance

OS:Construction,
  {9579d03b-280d-4986-a8fa-7e4064d08336}, !- Handle
  ASHRAE 189.1-2009 ExtRoof Metal ClimateZone 7-8, !- Name
  ,                                       !- Surface Rendering Name
  {83a570ef-9922-496e-8930-ce9d4fc098d2}, !- Layer 1
  {6bc5f068-dbf8-4963-abe0-2108343e20eb}, !- Layer 2
  {80c3e6f3-1836-4345-9e9b-4334edba5ba6}; !- Layer 3

OS:StandardsInformation:Construction,
  {fd7ad8ca-1934-4590-a12c-56dbc7d1e21b}, !- Handle
  {9579d03b-280d-4986-a8fa-7e4064d08336}, !- Construction Name
  ExteriorRoof,                           !- Intended Surface Type
  Metal;                                  !- Standards Construction Type

OS:Material,
  {6bc5f068-dbf8-4963-abe0-2108343e20eb}, !- Handle
  Roof Insulation [27],                   !- Name
  MediumRough,                            !- Roughness
  0.297000000000001,                      !- Thickness {m}
  0.049,                                  !- Conductivity {W/m-K}
  265,                                    !- Density {kg/m3}
  836.800000000001,                       !- Specific Heat {J/kg-K}
  0.9,                                    !- Thermal Absorptance
  0.7,                                    !- Solar Absorptance
  0.7;                                    !- Visible Absorptance

OS:Construction,
  {bfacc082-34b4-4220-bc24-aa2783b74ab3}, !- Handle
  ASHRAE 189.1-2009 ExtWall Mass ClimateZone 1, !- Name
  ,                                       !- Surface Rendering Name
  {840ebbb3-bbaa-4626-9517-2fc508b11fd3}, !- Layer 1
  {729b51b4-f35d-413b-8cd9-b774357c8f22}, !- Layer 2
  {e5431ba6-4d64-43c3-ab7b-046822582f18}, !- Layer 3
  {d628601a-bce6-48cf-a128-df8f58414192}; !- Layer 4

OS:StandardsInformation:Construction,
  {07b01d3d-7368-43e4-9a24-53a09adbdeec}, !- Handle
  {bfacc082-34b4-4220-bc24-aa2783b74ab3}, !- Construction Name
  ExteriorWall,                           !- Intended Surface Type
  Mass;                                   !- Standards Construction Type

OS:Material,
  {840ebbb3-bbaa-4626-9517-2fc508b11fd3}, !- Handle
  1IN Stucco,                             !- Name
  Smooth,                                 !- Roughness
  0.0253,                                 !- Thickness {m}
  0.691799999999999,                      !- Conductivity {W/m-K}
  1858,                                   !- Density {kg/m3}
  836.999999999999,                       !- Specific Heat {J/kg-K}
  0.9,                                    !- Thermal Absorptance
  0.92,                                   !- Solar Absorptance
  0.92;                                   !- Visible Absorptance

OS:Material,
  {729b51b4-f35d-413b-8cd9-b774357c8f22}, !- Handle
  8IN Concrete HW,                        !- Name
  MediumRough,                            !- Roughness
  0.2033,                                 !- Thickness {m}
  1.72959999999999,                       !- Conductivity {W/m-K}
  2242.99999999999,                       !- Density {kg/m3}
  836.999999999999,                       !- Specific Heat {J/kg-K}
  0.9,                                    !- Thermal Absorptance
  0.65,                                   !- Solar Absorptance
  0.65;                                   !- Visible Absorptance

OS:Material,
  {e5431ba6-4d64-43c3-ab7b-046822582f18}, !- Handle
  Wall Insulation [31],                   !- Name
  MediumRough,                            !- Roughness
  0.0337000000000001,                     !- Thickness {m}
  0.0432,                                 !- Conductivity {W/m-K}
  91,                                     !- Density {kg/m3}
  836.999999999999,                       !- Specific Heat {J/kg-K}
  0.9,                                    !- Thermal Absorptance
  0.5,                                    !- Solar Absorptance
  0.5;                                    !- Visible Absorptance

OS:Construction,
  {52a0b392-e147-4854-8069-ff2ef649e257}, !- Handle
  ASHRAE 189.1-2009 ExtWall Mass ClimateZone 2, !- Name
  ,                                       !- Surface Rendering Name
  {840ebbb3-bbaa-4626-9517-2fc508b11fd3}, !- Layer 1
  {729b51b4-f35d-413b-8cd9-b774357c8f22}, !- Layer 2
  {0114f78a-b6f4-4313-b61e-3721de70ef83}, !- Layer 3
  {d628601a-bce6-48cf-a128-df8f58414192}; !- Layer 4

OS:StandardsInformation:Construction,
  {ecbc7fc4-34a7-4978-a3bd-01d091405ee2}, !- Handle
  {52a0b392-e147-4854-8069-ff2ef649e257}, !- Construction Name
  ExteriorWall,                           !- Intended Surface Type
  Mass;                                   !- Standards Construction Type

OS:Material,
  {0114f78a-b6f4-4313-b61e-3721de70ef83}, !- Handle
  Wall Insulation [35],                   !- Name
  MediumRough,                            !- Roughness
  0.0452,                                 !- Thickness {m}
  0.0432,                                 !- Conductivity {W/m-K}
  91,                                     !- Density {kg/m3}
  836.999999999999,                       !- Specific Heat {J/kg-K}
  0.9,                                    !- Thermal Absorptance
  0.5,                                    !- Solar Absorptance
  0.5;                                    !- Visible Absorptance

OS:Construction,
  {9c226b68-118a-44b8-8d49-6cab6efc79b8}, !- Handle
  ASHRAE 189.1-2009 ExtWall Mass ClimateZone 3, !- Name
  ,                                       !- Surface Rendering Name
  {840ebbb3-bbaa-4626-9517-2fc508b11fd3}, !- Layer 1
  {729b51b4-f35d-413b-8cd9-b774357c8f22}, !- Layer 2
  {c935515c-b127-4b7b-942f-599036908001}, !- Layer 3
  {d628601a-bce6-48cf-a128-df8f58414192}; !- Layer 4

OS:StandardsInformation:Construction,
  {78d39838-5a96-4b80-9344-d7d9b1e755d9}, !- Handle
  {9c226b68-118a-44b8-8d49-6cab6efc79b8}, !- Construction Name
  ExteriorWall,                           !- Intended Surface Type
  Mass;                                   !- Standards Construction Type

OS:Material,
  {c935515c-b127-4b7b-942f-599036908001}, !- Handle
  Wall Insulation [36],                   !- Name
  MediumRough,                            !- Roughness
  0.0565999999999999,                     !- Thickness {m}
  0.0432,                                 !- Conductivity {W/m-K}
  91,                                     !- Density {kg/m3}
  836.999999999999,                       !- Specific Heat {J/kg-K}
  0.9,                                    !- Thermal Absorptance
  0.5,                                    !- Solar Absorptance
  0.5;                                    !- Visible Absorptance

OS:Construction,
  {c1818b10-c862-4761-8856-8d5eda724c8c}, !- Handle
  ASHRAE 189.1-2009 ExtWall Mass ClimateZone 4, !- Name
  ,                                       !- Surface Rendering Name
  {840ebbb3-bbaa-4626-9517-2fc508b11fd3}, !- Layer 1
  {729b51b4-f35d-413b-8cd9-b774357c8f22}, !- Layer 2
  {55961c8a-7fbf-4df2-9fa9-303f8c7ded05}, !- Layer 3
  {d628601a-bce6-48cf-a128-df8f58414192}; !- Layer 4

OS:StandardsInformation:Construction,
  {6d16b6fd-d40f-4ca2-a6de-ae00987bee38}, !- Handle
  {c1818b10-c862-4761-8856-8d5eda724c8c}, !- Construction Name
  ExteriorWall,                           !- Intended Surface Type
  Mass;                                   !- Standards Construction Type

OS:Material,
  {55961c8a-7fbf-4df2-9fa9-303f8c7ded05}, !- Handle
  Wall Insulation [37],                   !- Name
  MediumRough,                            !- Roughness
  0.0680999999999999,                     !- Thickness {m}
  0.0432,                                 !- Conductivity {W/m-K}
  91,                                     !- Density {kg/m3}
  836.999999999999,                       !- Specific Heat {J/kg-K}
  0.9,                                    !- Thermal Absorptance
  0.5,                                    !- Solar Absorptance
  0.5;                                    !- Visible Absorptance

OS:Construction,
  {883968d5-6e72-43ff-b186-31cadd4d832f}, !- Handle
  ASHRAE 189.1-2009 ExtWall Mass ClimateZone 5, !- Name
  ,                                       !- Surface Rendering Name
  {840ebbb3-bbaa-4626-9517-2fc508b11fd3}, !- Layer 1
  {729b51b4-f35d-413b-8cd9-b774357c8f22}, !- Layer 2
  {bc18751d-fd32-4952-910a-a065aa1495e5}, !- Layer 3
  {d628601a-bce6-48cf-a128-df8f58414192}; !- Layer 4

OS:StandardsInformation:Construction,
  {fc17d0b3-0f17-48c6-b28f-6abe73cd722d}, !- Handle
  {883968d5-6e72-43ff-b186-31cadd4d832f}, !- Construction Name
  ExteriorWall,                           !- Intended Surface Type
  Mass;                                   !- Standards Construction Type

OS:Material,
  {bc18751d-fd32-4952-910a-a065aa1495e5}, !- Handle
  Wall Insulation [40],                   !- Name
  MediumRough,                            !- Roughness
  0.0793999999999999,                     !- Thickness {m}
  0.0432,                                 !- Conductivity {W/m-K}
  91,                                     !- Density {kg/m3}
  836.999999999999,                       !- Specific Heat {J/kg-K}
  0.9,                                    !- Thermal Absorptance
  0.5,                                    !- Solar Absorptance
  0.5;                                    !- Visible Absorptance

OS:Construction,
  {bd57fa5f-fa29-4829-8aff-a6ac9cf6e281}, !- Handle
  ASHRAE 189.1-2009 ExtWall Mass ClimateZone 6, !- Name
  ,                                       !- Surface Rendering Name
  {840ebbb3-bbaa-4626-9517-2fc508b11fd3}, !- Layer 1
  {729b51b4-f35d-413b-8cd9-b774357c8f22}, !- Layer 2
  {2efe3284-a3ca-41ff-8c70-4219a2cfcbea}, !- Layer 3
  {d628601a-bce6-48cf-a128-df8f58414192}; !- Layer 4

OS:StandardsInformation:Construction,
  {85201d5b-de40-4548-a6a4-f77ab7a5f893}, !- Handle
  {bd57fa5f-fa29-4829-8aff-a6ac9cf6e281}, !- Construction Name
  ExteriorWall,                           !- Intended Surface Type
  Mass;                                   !- Standards Construction Type

OS:Material,
  {2efe3284-a3ca-41ff-8c70-4219a2cfcbea}, !- Handle
  Wall Insulation [42],                   !- Name
  MediumRough,                            !- Roughness
  0.0913999999999999,                     !- Thickness {m}
  0.0432,                                 !- Conductivity {W/m-K}
  91,                                     !- Density {kg/m3}
  836.999999999999,                       !- Specific Heat {J/kg-K}
  0.9,                                    !- Thermal Absorptance
  0.5,                                    !- Solar Absorptance
  0.5;                                    !- Visible Absorptance

OS:Construction,
  {3a0cba6f-856e-4549-bc22-40bc9d9f1743}, !- Handle
  ASHRAE 189.1-2009 ExtWall Mass ClimateZone 7-8, !- Name
  ,                                       !- Surface Rendering Name
  {840ebbb3-bbaa-4626-9517-2fc508b11fd3}, !- Layer 1
  {729b51b4-f35d-413b-8cd9-b774357c8f22}, !- Layer 2
  {3b76075f-7544-4938-ada6-a7997723faea}, !- Layer 3
  {d628601a-bce6-48cf-a128-df8f58414192}; !- Layer 4

OS:StandardsInformation:Construction,
  {be8b2222-8835-4ab0-9d74-10960b1770b3}, !- Handle
  {3a0cba6f-856e-4549-bc22-40bc9d9f1743}, !- Construction Name
  ExteriorWall,                           !- Intended Surface Type
  Mass;                                   !- Standards Construction Type

OS:Material,
  {3b76075f-7544-4938-ada6-a7997723faea}, !- Handle
  Wall Insulation [44],                   !- Name
  MediumRough,                            !- Roughness
  0.1104,                                 !- Thickness {m}
  0.0432,                                 !- Conductivity {W/m-K}
  91,                                     !- Density {kg/m3}
  836.999999999999,                       !- Specific Heat {J/kg-K}
  0.9,                                    !- Thermal Absorptance
  0.5,                                    !- Solar Absorptance
  0.5;                                    !- Visible Absorptance

OS:Construction,
  {11f5384a-45ac-4b8f-b446-1acfef0a6a46}, !- Handle
  ASHRAE 189.1-2009 ExtWall Mass ClimateZone alt-res 1, !- Name
  ,                                       !- Surface Rendering Name
  {840ebbb3-bbaa-4626-9517-2fc508b11fd3}, !- Layer 1
  {729b51b4-f35d-413b-8cd9-b774357c8f22}, !- Layer 2
  {0114f78a-b6f4-4313-b61e-3721de70ef83}, !- Layer 3
  {d628601a-bce6-48cf-a128-df8f58414192}; !- Layer 4

OS:StandardsInformation:Construction,
  {57a19523-78f3-4095-927f-691e1ea247b4}, !- Handle
  {11f5384a-45ac-4b8f-b446-1acfef0a6a46}, !- Construction Name
  ExteriorWall,                           !- Intended Surface Type
  Mass;                                   !- Standards Construction Type

OS:Construction,
  {6874503d-cba9-4299-8eb0-e9658802e01d}, !- Handle
  ASHRAE 189.1-2009 ExtWall Mass ClimateZone alt-res 2, !- Name
  ,                                       !- Surface Rendering Name
  {840ebbb3-bbaa-4626-9517-2fc508b11fd3}, !- Layer 1
  {729b51b4-f35d-413b-8cd9-b774357c8f22}, !- Layer 2
  {c935515c-b127-4b7b-942f-599036908001}, !- Layer 3
  {d628601a-bce6-48cf-a128-df8f58414192}; !- Layer 4

OS:StandardsInformation:Construction,
  {57bb759b-7fb7-4d6a-a5d4-b39328d47e6f}, !- Handle
  {6874503d-cba9-4299-8eb0-e9658802e01d}, !- Construction Name
  ExteriorWall,                           !- Intended Surface Type
  Mass;                                   !- Standards Construction Type

OS:Construction,
  {f7b5c1bb-8d9e-4c5b-9c2a-dc9eb7e5c800}, !- Handle
  ASHRAE 189.1-2009 ExtWall Mass ClimateZone alt-res 3, !- Name
  ,                                       !- Surface Rendering Name
  {840ebbb3-bbaa-4626-9517-2fc508b11fd3}, !- Layer 1
  {729b51b4-f35d-413b-8cd9-b774357c8f22}, !- Layer 2
  {55961c8a-7fbf-4df2-9fa9-303f8c7ded05}, !- Layer 3
  {d628601a-bce6-48cf-a128-df8f58414192}; !- Layer 4

OS:StandardsInformation:Construction,
  {c8983ac7-5e53-4b79-b85a-0401c0f71e7f}, !- Handle
  {f7b5c1bb-8d9e-4c5b-9c2a-dc9eb7e5c800}, !- Construction Name
  ExteriorWall,                           !- Intended Surface Type
  Mass;                                   !- Standards Construction Type

OS:Construction,
  {7a03174c-e408-4cd1-b92f-8f5ca81452e9}, !- Handle
  ASHRAE 189.1-2009 ExtWall Mass ClimateZone alt-res 4, !- Name
  ,                                       !- Surface Rendering Name
  {840ebbb3-bbaa-4626-9517-2fc508b11fd3}, !- Layer 1
  {729b51b4-f35d-413b-8cd9-b774357c8f22}, !- Layer 2
  {bc18751d-fd32-4952-910a-a065aa1495e5}, !- Layer 3
  {d628601a-bce6-48cf-a128-df8f58414192}; !- Layer 4

OS:StandardsInformation:Construction,
  {5193efdf-c76a-4ddf-80df-691789abcdaa}, !- Handle
  {7a03174c-e408-4cd1-b92f-8f5ca81452e9}, !- Construction Name
  ExteriorWall,                           !- Intended Surface Type
  Mass;                                   !- Standards Construction Type

OS:Construction,
  {de3f971e-9fff-48ef-91ec-fd94e37b7c8b}, !- Handle
  ASHRAE 189.1-2009 ExtWall Mass ClimateZone alt-res 5, !- Name
  ,                                       !- Surface Rendering Name
  {840ebbb3-bbaa-4626-9517-2fc508b11fd3}, !- Layer 1
  {729b51b4-f35d-413b-8cd9-b774357c8f22}, !- Layer 2
  {2efe3284-a3ca-41ff-8c70-4219a2cfcbea}, !- Layer 3
  {d628601a-bce6-48cf-a128-df8f58414192}; !- Layer 4

OS:StandardsInformation:Construction,
  {7e571b30-473c-4665-8a21-ff5ba7a96440}, !- Handle
  {de3f971e-9fff-48ef-91ec-fd94e37b7c8b}, !- Construction Name
  ExteriorWall,                           !- Intended Surface Type
  Mass;                                   !- Standards Construction Type

OS:Construction,
  {dc3972b2-fa65-40cf-9e72-8e22f3245674}, !- Handle
  ASHRAE 189.1-2009 ExtWall Mass ClimateZone alt-res 6, !- Name
  ,                                       !- Surface Rendering Name
  {840ebbb3-bbaa-4626-9517-2fc508b11fd3}, !- Layer 1
  {729b51b4-f35d-413b-8cd9-b774357c8f22}, !- Layer 2
  {3b76075f-7544-4938-ada6-a7997723faea}, !- Layer 3
  {d628601a-bce6-48cf-a128-df8f58414192}; !- Layer 4

OS:StandardsInformation:Construction,
  {0d024b54-a3db-4bbb-9c1e-90aef767f593}, !- Handle
  {dc3972b2-fa65-40cf-9e72-8e22f3245674}, !- Construction Name
  ExteriorWall,                           !- Intended Surface Type
  Mass;                                   !- Standards Construction Type

OS:Construction,
  {6bf42e21-78ce-431c-bd96-d5ffa8739c64}, !- Handle
  ASHRAE 189.1-2009 ExtWall Mass ClimateZone alt-res 7, !- Name
  ,                                       !- Surface Rendering Name
  {840ebbb3-bbaa-4626-9517-2fc508b11fd3}, !- Layer 1
  {729b51b4-f35d-413b-8cd9-b774357c8f22}, !- Layer 2
  {3b76075f-7544-4938-ada6-a7997723faea}, !- Layer 3
  {d628601a-bce6-48cf-a128-df8f58414192}; !- Layer 4

OS:StandardsInformation:Construction,
  {547a891e-9c7f-47d2-b325-161463999d26}, !- Handle
  {6bf42e21-78ce-431c-bd96-d5ffa8739c64}, !- Construction Name
  ExteriorWall,                           !- Intended Surface Type
  Mass;                                   !- Standards Construction Type

OS:Construction,
  {582afe7c-d8a8-4e8a-81e1-356ad8c4b063}, !- Handle
  ASHRAE 189.1-2009 ExtWall Mass ClimateZone alt-res 8, !- Name
  ,                                       !- Surface Rendering Name
  {840ebbb3-bbaa-4626-9517-2fc508b11fd3}, !- Layer 1
  {729b51b4-f35d-413b-8cd9-b774357c8f22}, !- Layer 2
  {ed257f27-01ca-4a34-8e48-c404308ca3dc}, !- Layer 3
  {d628601a-bce6-48cf-a128-df8f58414192}; !- Layer 4

OS:StandardsInformation:Construction,
  {0e0ad4a8-2941-4f84-b59f-b66453d4e5f6}, !- Handle
  {582afe7c-d8a8-4e8a-81e1-356ad8c4b063}, !- Construction Name