
OS:Version,
  {672c08a6-6985-49be-b0ae-dadf7c887338}, !- Handle
  1.3.3;                                  !- Version Identifier

OS:Construction,
  {4b3b86eb-edb9-4d9d-9312-bc1452cc2a17}, !- Handle
  ASHRAE 189.1-2009 AtticFloor ClimateZone 1-8, !- Name
  ,                                       !- Surface Rendering Name
  {f0045279-5fae-4f3d-a571-439e17fc2e09}, !- Layer 1
  {50053649-bf0b-43c9-bda4-d0bfcd446679}, !- Layer 2
  {f0045279-5fae-4f3d-a571-439e17fc2e09}; !- Layer 3

OS:StandardsInformation:Construction,
  {5a9d890b-ff82-4759-9cdb-d23de5a56b86}, !- Handle
  {4b3b86eb-edb9-4d9d-9312-bc1452cc2a17}, !- Construction Name
  AtticFloor,                             !- Intended Surface Type
  WoodFramed;                             !- Standards Construction Type

OS:Material,
  {f0045279-5fae-4f3d-a571-439e17fc2e09}, !- Handle
  1/2IN Gypsum,                           !- Name
  Smooth,                                 !- Roughness
  0.0127,                                 !- Thickness {m}
  0.16,                                   !- Conductivity {W/m-K}
  784.9,                                  !- Density {kg/m3}
  830.000000000001,                       !- Specific Heat {J/kg-K}
  0.9,                                    !- Thermal Absorptance
  0.92,                                   !- Solar Absorptance
  0.92;                                   !- Visible Absorptance

OS:Material,
  {50053649-bf0b-43c9-bda4-d0bfcd446679}, !- Handle
  AtticFloor Insulation,                  !- Name
  MediumRough,                            !- Roughness
  0.2379,                                 !- Thickness {m}
  0.049,                                  !- Conductivity {W/m-K}
  265,                                    !- Density {kg/m3}
  836.800000000001,                       !- Specific Heat {J/kg-K}
  0.9,                                    !- Thermal Absorptance
  0.7,                                    !- Solar Absorptance
  0.7;                                    !- Visible Absorptance

OS:Construction,
  {d4d93f6d-214a-4b71-b990-7f0555148490}, !- Handle
  ASHRAE 189.1-2009 ExtRoof IEAD ClimateZone 1, !- Name
  ,                                       !- Surface Rendering Name
  {a484605e-cc49-4489-863c-b87c3c5a2892}, !- Layer 1
  {ba0889cb-453e-4a77-8482-18e70d71f7bc}, !- Layer 2
  {d9f36d03-dd1e-4242-b10c-387eb7b9604e}; !- Layer 3

OS:StandardsInformation:Construction,
  {976f523c-0864-4058-beec-bfc93751376a}, !- Handle
  {d4d93f6d-214a-4b71-b990-7f0555148490}, !- Construction Name
  ExteriorRoof,                           !- Intended Surface Type
  IEAD;                                   !- Standards Construction Type

OS:Material,
  {a484605e-cc49-4489-863c-b87c3c5a2892}, !- Handle
  Roof Membrane,                          !- Name
  VeryRough,                              !- Roughness
  0.0095,                                 !- Thickness {m}
  0.16,                                   !- Conductivity {W/m-K}
  1121.29,                                !- Density {kg/m3}
  1460,                                   !- Specific Heat {J/kg-K}
  0.9,                                    !- Thermal Absorptance
  0.7,                                    !- Solar Absorptance
  0.7;                                    !- Visible Absorptance

OS:Material,
  {ba0889cb-453e-4a77-8482-18e70d71f7bc}, !- Handle
  Roof Insulation [18],                   !- Name
  MediumRough,                            !- Roughness
  0.1693,                                 !- Thickness {m}
  0.049,                                  !- Conductivity {W/m-K}
  265,                                    !- Density {kg/m3}
  836.800000000001,                       !- Specific Heat {J/kg-K}
  0.9,                                    !- Thermal Absorptance
  0.7,                                    !- Solar Absorptance
  0.7;                                    !- Visible Absorptance

OS:Material,
  {d9f36d03-dd1e-4242-b10c-387eb7b9604e}, !- Handle
  Metal Decking,                          !- Name
  MediumSmooth,                           !- Roughness
  0.0015,                                 !- Thickness {m}
  45.006,                                 !- Conductivity {W/m-K}
  7680,                                   !- Density {kg/m3}
  418.4,                                  !- Specific Heat {J/kg-K}
  0.9,                                    !- Thermal Absorptance
  0.7,                                    !- Solar Absorptance
  0.3;                                    !- Visible Absorptance

OS:Construction,
  {3a36a94f-70ac-4aa5-abc9-989cfb41c820}, !- Handle
  ASHRAE 189.1-2009 ExtRoof IEAD ClimateZone 2-5, !- Name
  ,                                       !- Surface Rendering Name
  {a484605e-cc49-4489-863c-b87c3c5a2892}, !- Layer 1
  {91a31910-434e-4fb5-ba41-742a9fca5530}, !- Layer 2
  {d9f36d03-dd1e-4242-b10c-387eb7b9604e}; !- Layer 3

OS:StandardsInformation:Construction,
  {f22f9eeb-e97f-4a57-9a61-a8757b3e824b}, !- Handle
  {3a36a94f-70ac-4aa5-abc9-989cfb41c820}, !- Construction Name
  ExteriorRoof,                           !- Intended Surface Type
  IEAD;                                   !- Standards Construction Type

OS:Material,
  {91a31910-434e-4fb5-ba41-742a9fca5530}, !- Handle
  Roof Insulation [21],                   !- Name
  MediumRough,                            !- Roughness
  0.2105,                                 !- Thickness {m}
  0.049,                                  !- Conductivity {W/m-K}
  265,                                    !- Density {kg/m3}
  836.800000000001,                       !- Specific Heat {J/kg-K}
  0.9,                                    !- Thermal Absorptance
  0.7,                                    !- Solar Absorptance
  0.7;                                    !- Visible Absorptance

OS:Construction,
  {ed343521-e8f9-4090-9eda-15eebc0bcfd8}, !- Handle
  ASHRAE 189.1-2009 ExtRoof IEAD ClimateZone 6, !- Name
  ,                                       !- Surface Rendering Name
  {a484605e-cc49-4489-863c-b87c3c5a2892}, !- Layer 1
  {1d19a707-85b6-45cb-9274-83eecb5e3f84}, !- Layer 2
  {d9f36d03-dd1e-4242-b10c-387eb7b9604e}; !- Layer 3

OS:StandardsInformation:Construction,
  {6df1152d-9d69-4035-93ec-b4a01b1c313a}, !- Handle
  {ed343521-e8f9-4090-9eda-15eebc0bcfd8}, !- Construction Name
  ExteriorRoof,                           !- Intended Surface Type
  IEAD;                                   !- Standards Construction Type

OS:Material,
  {1d19a707-85b6-45cb-9274-83eecb5e3f84}, !- Handle
  Roof Insulation [24],                   !- Name
  MediumRough,                            !- Roughness
  0.260100000000001,                      !- Thickness {m}
  0.049,                                  !- Conductivity {W/m-K}
  265,                                    !- Density {kg/m3}
  836.800000000001,                       !- Specific Heat {J/kg-K}
  0.9,                                    !- Thermal Absorptance
  0.7,                                    !- Solar Absorptance
  0.7;                                    !- Visible Absorptance

OS:Construction,
  {5ad4cad9-5c75-44aa-8ad3-0de428a2dd24}, !- Handle
  ASHRAE 189.1-2009 ExtRoof IEAD ClimateZone 7-8, !- Name
  ,                                       !- Surface Rendering Name
  {a484605e-cc49-4489-863c-b87c3c5a2892}, !- Layer 1
  {8b886f62-b122-4f3e-8d39-3601b5ee00ef}, !- Layer 2
  {d9f36d03-dd1e-4242-b10c-387eb7b9604e}; !- Layer 3

OS:StandardsInformation:Construction,
  {41d570c3-adae-4057-8807-c1beb8e863ac}, !- Handle
  {5ad4cad9-5c75-44aa-8ad3-0de428a2dd24}, !- Construction Name
  ExteriorRoof,                           !- Intended Surface Type
  IEAD;                                   !- Standards Construction Type

OS:Material,
  {8b886f62-b122-4f3e-8d39-3601b5ee00ef}, !- Handle
  Roof Insulation [26],                   !- Name
  MediumRough,                            !- Roughness
  0.2941,                                 !- Thickness {m}
  0.049,                                  !- Conductivity {W/m-K}
  265,                                    !- Density {kg/m3}
  836.800000000001,                       !- Specific Heat {J/kg-K}
  0.9,                                    !- Thermal Absorptance
  0.7,                                    !- Solar Absorptance
  0.7;                                    !- Visible Absorptance

OS:Construction,
  {99e6a401-47ad-4689-8996-84ff976abf1c}, !- Handle
  ASHRAE 189.1-2009 ExtRoof Metal ClimateZone 1, !- Name
  ,                                       !- Surface Rendering Name
  {b2ba92d1-a88b-4d11-b9b3-f953125a707b}, !- Layer 1
  {652e0ef9-a4c4-46d6-bc72-d79aba9b597e}; !- Layer 2

OS:StandardsInformation:Construction,
  {1a22e3ea-0015-466b-a52a-561bbfd4f20b}, !- Handle
  {99e6a401-47ad-4689-8996-84ff976abf1c}, !- Construction Name
  ExteriorRoof,                           !- Intended Surface Type
  Metal;                                  !- Standards Construction Type

OS:Material,
  {b2ba92d1-a88b-4d11-b9b3-f953125a707b}, !- Handle
  Metal Roofing,                          !- Name
  MediumSmooth,                           !- Roughness
  0.0015,                                 !- Thickness {m}
  45.006,                                 !- Conductivity {W/m-K}
  7680,                                   !- Density {kg/m3}
  418.4,                                  !- Specific Heat {J/kg-K}
  0.9,                                    !- Thermal Absorptance
  0.3,                                    !- Solar Absorptance
  0.3;                                    !- Visible Absorptance

OS:Material,
  {652e0ef9-a4c4-46d6-bc72-d79aba9b597e}, !- Handle
  Roof Insulation [19],                   !- Name
  MediumRough,                            !- Roughness
  0.1868,                                 !- Thickness {m}
  0.049,                                  !- Conductivity {W/m-K}
  265,                                    !- Density {kg/m3}
  836.800000000001,                       !- Specific Heat {J/kg-K}
  0.9,                                    !- Thermal Absorptance
  0.7,                                    !- Solar Absorptance
  0.7;                                    !- Visible Absorptance

OS:Construction,
  {c4ee3434-13dc-4cf0-8c21-0cf6629a2678}, !- Handle
  ASHRAE 189.1-2009 ExtRoof Metal ClimateZone 2-5, !- Name
  ,                                       !- Surface Rendering Name
  {b2ba92d1-a88b-4d11-b9b3-f953125a707b}, !- Layer 1
  {13bab96d-9fa1-40d2-a66f-e339f3e4d81e}; !- Layer 2

OS:StandardsInformation:Construction,
  {8dddf2e9-b79a-4788-b920-dbbed94d4625}, !- Handle
  {c4ee3434-13dc-4cf0-8c21-0cf6629a2678}, !- Construction Name
  ExteriorRoof,                           !- Intended Surface Type
  Metal;                                  !- Standards Construction Type

OS:Material,
  {13bab96d-9fa1-40d2-a66f-e339f3e4d81e}, !- Handle
  Roof Insulation [22],                   !- Name
  MediumRough,                            !- Roughness
  0.2358,                                 !- Thickness {m}
  0.049,                                  !- Conductivity {W/m-K}
  265,                                    !- Density {kg/m3}
  836.800000000001,                       !- Specific Heat {J/kg-K}
  0.9,                                    !- Thermal Absorptance
  0.7,                                    !- Solar Absorptance
  0.7;                                    !- Visible Absorptance

OS:Construction,
  {f0c63531-99d1-41d7-b950-1e4c0cd37bf4}, !- Handle
  ASHRAE 189.1-2009 ExtRoof Metal ClimateZone 6, !- Name
  ,                                       !- Surface Rendering Name
  {b2ba92d1-a88b-4d11-b9b3-f953125a707b}, !- Layer 1
  {2fb28244-fcd7-45b8-ae28-09b3380c03b4}; !- Layer 2

OS:StandardsInformation:Construction,
  {ff0c2a53-66bd-4555-840c-a367f4600c80}, !- Handle
  {f0c63531-99d1-41d7-b950-1e4c0cd37bf4}, !- Construction Name
  ExteriorRoof,                           !- Intended Surface Type
  Metal;                                  !- Standards Construction Type

OS:Material,
  {2fb28244-fcd7-45b8-ae28-09b3380c03b4}, !- Handle
  Roof Insulation [25],                   !- Name
  MediumRough,                            !- Roughness
  0.263,                                  !- Thickness {m}
  0.049,                                  !- Conductivity {W/m-K}
  265,                                    !- Density {kg/m3}
  836.800000000001,                       !- Specific Heat {J/kg-K}
  0.9,                                    !- Thermal Absorptance
  0.7,                                    !- Solar Absorptance
  0.7;                                    !- Visible Absorptance

OS:Construction,
  {fdce1969-3305-4d3e-b016-564bf098ff63}, !- Handle
  ASHRAE 189.1-2009 ExtRoof Metal ClimateZone 7-8, !- Name
  ,                                       !- Surface Rendering Name
  {b2ba92d1-a88b-4d11-b9b3-f953125a707b}, !- Layer 1
  {76b2f778-6811-4bf8-b523-0f6dff39cb95}; !- Layer 2

OS:StandardsInformation:Construction,
  {7c2d50c5-8c5f-42c9-bb78-f56b281d8915}, !- Handle
  {fdce1969-3305-4d3e-b016-564bf098ff63}, !- Construction Name
  ExteriorRoof,                           !- Intended Surface Type
  Metal;                                  !- Standards Construction Type

OS:Material,
  {76b2f778-6811-4bf8-b523-0f6dff39cb95}, !- Handle
  Roof Insulation [27],                   !- Name
  MediumRough,                            !- Roughness
  0.297000000000001,                      !- Thickness {m}
  0.049,                                  !- Conductivity {W/m-K}
  265,                                    !- Density {kg/m3}
  836.800000000001,                       !- Specific Heat {J/kg-K}
  0.9,                                    !- Thermal Absorptance
  0.7,                                    !- Solar Absorptance
  0.7;                                    !- Visible Absorptance

OS:Construction,
  {f5ac64b5-77da-494e-a72d-ed792c9fa9b5}, !- Handle
  ASHRAE 189.1-2009 ExtWall Mass ClimateZone 1, !- Name
  ,                                       !- Surface Rendering Name
  {fd125919-276a-40d0-9fe4-193b001ad3d7}, !- Layer 1
  {0c8f540c-8a25-458a-a293-fda41e72e806}, !- Layer 2
  {36ff46c4-cc15-441b-a77b-fea4052cdb6f}, !- Layer 3
  {f0045279-5fae-4f3d-a571-439e17fc2e09}; !- Layer 4

OS:StandardsInformation:Construction,
  {56ab61b0-375f-4e58-9455-9bd961c945b1}, !- Handle
  {f5ac64b5-77da-494e-a72d-ed792c9fa9b5}, !- Construction Name
  ExteriorWall,                           !- Intended Surface Type
  Mass;                                   !- Standards Construction Type

OS:Material,
  {fd125919-276a-40d0-9fe4-193b001ad3d7}, !- Handle
  1IN Stucco,                             !- Name
  Smooth,                                 !- Roughness
  0.0253,                                 !- Thickness {m}
  0.691799999999999,                      !- Conductivity {W/m-K}
  1858,                                   !- Density {kg/m3}
  836.999999999999,                       !- Specific Heat {J/kg-K}
  0.9,                                    !- Thermal Absorptance
  0.92,                                   !- Solar Absorptance
  0.92;                                   !- Visible Absorptance

OS:Material,
  {0c8f540c-8a25-458a-a293-fda41e72e806}, !- Handle
  8IN Concrete HW,                        !- Name
  MediumRough,                            !- Roughness
  0.2033,                                 !- Thickness {m}
  1.72959999999999,                       !- Conductivity {W/m-K}
  2242.99999999999,                       !- Density {kg/m3}
  836.999999999999,                       !- Specific Heat {J/kg-K}
  0.9,                                    !- Thermal Absorptance
  0.65,                                   !- Solar Absorptance
  0.65;                                   !- Visible Absorptance

OS:Material,
  {36ff46c4-cc15-441b-a77b-fea4052cdb6f}, !- Handle
  Wall Insulation [31],                   !- Name
  MediumRough,                            !- Roughness
  0.0337000000000001,                     !- Thickness {m}
  0.0432,                                 !- Conductivity {W/m-K}
  91,                                     !- Density {kg/m3}
  836.999999999999,                       !- Specific Heat {J/kg-K}
  0.9,                                    !- Thermal Absorptance
  0.5,                                    !- Solar Absorptance
  0.5;                                    !- Visible Absorptance

OS:Construction,
  {6e7c8fcf-8420-442f-86a9-a5d89ba48c49}, !- Handle
  ASHRAE 189.1-2009 ExtWall Mass ClimateZone 2, !- Name
  ,                                       !- Surface Rendering Name
  {fd125919-276a-40d0-9fe4-193b001ad3d7}, !- Layer 1
  {0c8f540c-8a25-458a-a293-fda41e72e806}, !- Layer 2
  {7152ee37-a6a2-43e4-a4a3-1e94ca73e8dd}, !- Layer 3
  {f0045279-5fae-4f3d-a571-439e17fc2e09}; !- Layer 4

OS:StandardsInformation:Construction,
  {8cbedba4-7a5f-4e92-8abe-fed19d00d674}, !- Handle
  {6e7c8fcf-8420-442f-86a9-a5d89ba48c49}, !- Construction Name
  ExteriorWall,                           !- Intended Surface Type
  Mass;                                   !- Standards Construction Type

OS:Material,
  {7152ee37-a6a2-43e4-a4a3-1e94ca73e8dd}, !- Handle
  Wall Insulation [35],                   !- Name
  MediumRough,                            !- Roughness
  0.0452,                                 !- Thickness {m}
  0.0432,                                 !- Conductivity {W/m-K}
  91,                                     !- Density {kg/m3}
  836.999999999999,                       !- Specific Heat {J/kg-K}
  0.9,                                    !- Thermal Absorptance
  0.5,                                    !- Solar Absorptance
  0.5;                                    !- Visible Absorptance

OS:Construction,
  {f08a01dd-0df1-4f16-93e6-237ed9b3dcde}, !- Handle
  ASHRAE 189.1-2009 ExtWall Mass ClimateZone 3, !- Name
  ,                                       !- Surface Rendering Name
  {fd125919-276a-40d0-9fe4-193b001ad3d7}, !- Layer 1
  {0c8f540c-8a25-458a-a293-fda41e72e806}, !- Layer 2
  {3b463ddb-9f7f-469b-a336-2f47fd05e3e2}, !- Layer 3
  {f0045279-5fae-4f3d-a571-439e17fc2e09}; !- Layer 4

OS:StandardsInformation:Construction,
  {09556d69-4584-4c42-9cca-3f49c5b89462}, !- Handle
  {f08a01dd-0df1-4f16-93e6-237ed9b3dcde}, !- Construction Name
  ExteriorWall,                           !- Intended Surface Type
  Mass;                                   !- Standards Construction Type

OS:Material,
  {3b463ddb-9f7f-469b-a336-2f47fd05e3e2}, !- Handle
  Wall Insulation [36],                   !- Name
  MediumRough,                            !- Roughness
  0.0565999999999999,                     !- Thickness {m}
  0.0432,                                 !- Conductivity {W/m-K}
  91,                                     !- Density {kg/m3}
  836.999999999999,                       !- Specific Heat {J/kg-K}
  0.9,                                    !- Thermal Absorptance
  0.5,                                    !- Solar Absorptance
  0.5;                                    !- Visible Absorptance

OS:Construction,
  {a223e3cd-ffee-40fb-9c29-24d09650f19f}, !- Handle
  ASHRAE 189.1-2009 ExtWall Mass ClimateZone 4, !- Name
  ,                                       !- Surface Rendering Name
  {fd125919-276a-40d0-9fe4-193b001ad3d7}, !- Layer 1
  {0c8f540c-8a25-458a-a293-fda41e72e806}, !- Layer 2
  {de8c1ede-f19b-49f3-b5f9-872f4db9028a}, !- Layer 3
  {f0045279-5fae-4f3d-a571-439e17fc2e09}; !- Layer 4

OS:StandardsInformation:Construction,
  {6f82ae2a-16c7-40e4-9ac5-0c98159c72eb}, !- Handle
  {a223e3cd-ffee-40fb-9c29-24d09650f19f}, !- Construction Name
  ExteriorWall,                           !- Intended Surface Type
  Mass;                                   !- Standards Construction Type

OS:Material,
  {de8c1ede-f19b-49f3-b5f9-872f4db9028a}, !- Handle
  Wall Insulation [37],                   !- Name
  MediumRough,                            !- Roughness
  0.0680999999999999,                     !- Thickness {m}
  0.0432,                                 !- Conductivity {W/m-K}
  91,                                     !- Density {kg/m3}
  836.999999999999,                       !- Specific Heat {J/kg-K}
  0.9,                                    !- Thermal Absorptance
  0.5,                                    !- Solar Absorptance
  0.5;                                    !- Visible Absorptance

OS:Construction,
  {43acabd4-ae08-4020-8a83-a714347682be}, !- Handle
  ASHRAE 189.1-2009 ExtWall Mass ClimateZone 5, !- Name
  ,                                       !- Surface Rendering Name
  {fd125919-276a-40d0-9fe4-193b001ad3d7}, !- Layer 1
  {0c8f540c-8a25-458a-a293-fda41e72e806}, !- Layer 2
  {b0d3691f-bc09-41b8-8efc-efd510239696}, !- Layer 3
  {f0045279-5fae-4f3d-a571-439e17fc2e09}; !- Layer 4

OS:StandardsInformation:Construction,
  {836ae04d-7eda-464d-b420-23ec98274c22}, !- Handle
  {43acabd4-ae08-4020-8a83-a714347682be}, !- Construction Name
  ExteriorWall,                           !- Intended Surface Type
  Mass;                                   !- Standards Construction Type

OS:Material,
  {b0d3691f-bc09-41b8-8efc-efd510239696}, !- Handle
  Wall Insulation [40],                   !- Name
  MediumRough,                            !- Roughness
  0.0793999999999999,                     !- Thickness {m}
  0.0432,                                 !- Conductivity {W/m-K}
  91,                                     !- Density {kg/m3}
  836.999999999999,                       !- Specific Heat {J/kg-K}
  0.9,                                    !- Thermal Absorptance
  0.5,                                    !- Solar Absorptance
  0.5;                                    !- Visible Absorptance

OS:Construction,
  {08847233-5d73-4939-8f34-87dd561fa8e0}, !- Handle
  ASHRAE 189.1-2009 ExtWall Mass ClimateZone 6, !- Name
  ,                                       !- Surface Rendering Name
  {fd125919-276a-40d0-9fe4-193b001ad3d7}, !- Layer 1
  {0c8f540c-8a25-458a-a293-fda41e72e806}, !- Layer 2
  {a2d4022e-d0e2-4b8f-af6f-2acb1e967d6a}, !- Layer 3
  {f0045279-5fae-4f3d-a571-439e17fc2e09}; !- Layer 4

OS:StandardsInformation:Construction,
  {14368671-9166-42a4-8118-6f59599d1d3c}, !- Handle
  {08847233-5d73-4939-8f34-87dd561fa8e0}, !- Construction Name
  ExteriorWall,                           !- Intended Surface Type
  Mass;                                   !- Standards Construction Type

OS:Material,
  {a2d4022e-d0e2-4b8f-af6f-2acb1e967d6a}, !- Handle
  Wall Insulation [42],                   !- Name
  MediumRough,                            !- Roughness
  0.0913999999999999,                     !- Thickness {m}
  0.0432,                                 !- Conductivity {W/m-K}
  91,                                     !- Density {kg/m3}
  836.999999999999,                       !- Specific Heat {J/kg-K}
  0.9,                                    !- Thermal Absorptance
  0.5,                                    !- Solar Absorptance
  0.5;                                    !- Visible Absorptance

OS:Construction,
  {8b216cd4-09aa-48ff-8993-31511e594cf9}, !- Handle
  ASHRAE 189.1-2009 ExtWall Mass ClimateZone 7-8, !- Name
  ,                                       !- Surface Rendering Name
  {fd125919-276a-40d0-9fe4-193b001ad3d7}, !- Layer 1
  {0c8f540c-8a25-458a-a293-fda41e72e806}, !- Layer 2
  {a9100a90-5965-41d8-a734-ecfdb96d5e09}, !- Layer 3
  {f0045279-5fae-4f3d-a571-439e17fc2e09}; !- Layer 4

OS:StandardsInformation:Construction,
  {8f06c70f-30bf-44a8-8a09-41161a32bf65}, !- Handle
  {8b216cd4-09aa-48ff-8993-31511e594cf9}, !- Construction Name
  ExteriorWall,                           !- Intended Surface Type
  Mass;                                   !- Standards Construction Type

OS:Material,
  {a9100a90-5965-41d8-a734-ecfdb96d5e09}, !- Handle
  Wall Insulation [44],                   !- Name
  MediumRough,                            !- Roughness
  0.1104,                                 !- Thickness {m}
  0.0432,                                 !- Conductivity {W/m-K}
  91,                                     !- Density {kg/m3}
  836.999999999999,                       !- Specific Heat {J/kg-K}
  0.9,                                    !- Thermal Absorptance
  0.5,                                    !- Solar Absorptance
  0.5;                                    !- Visible Absorptance

OS:Construction,
  {b8d71c95-c5a2-4fb6-8d43-36cfa8712fbc}, !- Handle
  ASHRAE 189.1-2009 ExtWall Mass ClimateZone alt-res 1, !- Name
  ,                                       !- Surface Rendering Name
  {fd125919-276a-40d0-9fe4-193b001ad3d7}, !- Layer 1
  {0c8f540c-8a25-458a-a293-fda41e72e806}, !- Layer 2
  {7152ee37-a6a2-43e4-a4a3-1e94ca73e8dd}, !- Layer 3
  {f0045279-5fae-4f3d-a571-439e17fc2e09}; !- Layer 4

OS:StandardsInformation:Construction,
  {256d75df-0547-43c2-8672-b60e7bc1fe35}, !- Handle
  {b8d71c95-c5a2-4fb6-8d43-36cfa8712fbc}, !- Construction Name
  ExteriorWall,                           !- Intended Surface Type
  Mass;                                   !- Standards Construction Type

OS:Construction,
  {52767282-f3f9-4825-a2d3-6240f2f54bab}, !- Handle
  ASHRAE 189.1-2009 ExtWall Mass ClimateZone alt-res 2, !- Name
  ,                                       !- Surface Rendering Name
  {fd125919-276a-40d0-9fe4-193b001ad3d7}, !- Layer 1
  {0c8f540c-8a25-458a-a293-fda41e72e806}, !- Layer 2
  {3b463ddb-9f7f-469b-a336-2f47fd05e3e2}, !- Layer 3
  {f0045279-5fae-4f3d-a571-439e17fc2e09}; !- Layer 4

OS:StandardsInformation:Construction,
  {ec2b1899-6691-4d58-a745-8185efce9cf9}, !- Handle
  {52767282-f3f9-4825-a2d3-6240f2f54bab}, !- Construction Name
  ExteriorWall,                           !- Intended Surface Type
  Mass;                                   !- Standards Construction Type

OS:Construction,
  {51e073dc-66bf-4cb6-82d4-ce468bf7806b}, !- Handle
  ASHRAE 189.1-2009 ExtWall Mass ClimateZone alt-res 3, !- Name
  ,                                       !- Surface Rendering Name
  {fd125919-276a-40d0-9fe4-193b001ad3d7}, !- Layer 1
  {0c8f540c-8a25-458a-a293-fda41e72e806}, !- Layer 2
  {de8c1ede-f19b-49f3-b5f9-872f4db9028a}, !- Layer 3
  {f0045279-5fae-4f3d-a571-439e17fc2e09}; !- Layer 4

OS:StandardsInformation:Construction,
  {89b98901-26bf-4ac1-9e2c-27794adac488}, !- Handle
  {51e073dc-66bf-4cb6-82d4-ce468bf7806b}, !- Construction Name
  ExteriorWall,                           !- Intended Surface Type
  Mass;                                   !- Standards Construction Type

OS:Construction,
  {fb542098-080e-4051-bca6-569c7998c30c}, !- Handle
  ASHRAE 189.1-2009 ExtWall Mass ClimateZone alt-res 4, !- Name
  ,                                       !- Surface Rendering Name
  {fd125919-276a-40d0-9fe4-193b001ad3d7}, !- Layer 1
  {0c8f540c-8a25-458a-a293-fda41e72e806}, !- Layer 2
  {b0d3691f-bc09-41b8-8efc-efd510239696}, !- Layer 3
  {f0045279-5fae-4f3d-a571-439e17fc2e09}; !- Layer 4

OS:StandardsInformation:Construction,
  {f9dc1679-9201-4642-8125-3c8078cbb86f}, !- Handle
  {fb542098-080e-4051-bca6-569c7998c30c}, !- Construction Name
  ExteriorWall,                           !- Intended Surface Type
  Mass;                                   !- Standards Construction Type

OS:Construction,
  {dc1662ad-f9f9-490a-83bd-132918e185cc}, !- Handle
  ASHRAE 189.1-2009 ExtWall Mass ClimateZone alt-res 5, !- Name
  ,                                       !- Surface Rendering Name
  {fd125919-276a-40d0-9fe4-193b001ad3d7}, !- Layer 1
  {0c8f540c-8a25-458a-a293-fda41e72e806}, !- Layer 2
  {a2d4022e-d0e2-4b8f-af6f-2acb1e967d6a}, !- Layer 3
  {f0045279-5fae-4f3d-a571-439e17fc2e09}; !- Layer 4

OS:StandardsInformation:Construction,
  {7dba9ea2-5192-4f13-b413-3189fdb475a3}, !- Handle
  {dc1662ad-f9f9-490a-83bd-132918e185cc}, !- Construction Name
  ExteriorWall,                           !- Intended Surface Type
  Mass;                                   !- Standards Construction Type

OS:Construction,
  {42e23301-8882-4180-af5a-83bdb55ba3b6}, !- Handle
  ASHRAE 189.1-2009 ExtWall Mass ClimateZone alt-res 6, !- Name
  ,                                       !- Surface Rendering Name
  {fd125919-276a-40d0-9fe4-193b001ad3d7}, !- Layer 1
  {0c8f540c-8a25-458a-a293-fda41e72e806}, !- Layer 2
  {a9100a90-5965-41d8-a734-ecfdb96d5e09}, !- Layer 3
  {f0045279-5fae-4f3d-a571-439e17fc2e09}; !- Layer 4

OS:StandardsInformation:Construction,
  {292d8484-b3c9-4a6c-be7e-884a16127e2c}, !- Handle
  {42e23301-8882-4180-af5a-83bdb55ba3b6}, !- Construction Name
  ExteriorWall,                           !- Intended Surface Type
  Mass;                                   !- Standards Construction Type

OS:Construction,
  {bd64ee38-d63c-4f95-b81f-0317882aef8d}, !- Handle
  ASHRAE 189.1-2009 ExtWall Mass ClimateZone alt-res 7, !- Name
  ,                                       !- Surface Rendering Name
  {fd125919-276a-40d0-9fe4-193b001ad3d7}, !- Layer 1
  {0c8f540c-8a25-458a-a293-fda41e72e806}, !- Layer 2
  {a9100a90-5965-41d8-a734-ecfdb96d5e09}, !- Layer 3
  {f0045279-5fae-4f3d-a571-439e17fc2e09}; !- Layer 4

OS:StandardsInformation:Construction,
  {c974daf4-3233-4da7-931f-0c06764410fd}, !- Handle
  {bd64ee38-d63c-4f95-b81f-0317882aef8d}, !- Construction Name
  ExteriorWall,                           !- Intended Surface Type
  Mass;                                   !- Standards Construction Type

OS:Construction,
  {ea0155ff-d484-41f2-af60-7613321357d0}, !- Handle
  ASHRAE 189.1-2009 ExtWall Mass ClimateZone alt-res 8, !- Name
  ,                                       !- Surface Rendering Name
  {fd125919-276a-40d0-9fe4-193b001ad3d7}, !- Layer 1
  {0c8f540c-8a25-458a-a293-fda41e72e806}, !- Layer 2
  {5d8ed545-82fe-4791-a2f5-9c62bb403b81}, !- Layer 3
  {f0045279-5fae-4f3d-a571-439e17fc2e09}; !- Layer 4

OS:StandardsInformation:Construction,
  {8a84c197-1909-40da-9cfe-b40ca6a15756}, !- Handle
  {ea0155ff-d484-41f2-af60-7613321357d0}, !- Construction Name
  ExteriorWall,                           !- Intended Surface Type
  Mass;                                   !- Standards Construction Type

OS:Material,
  {5d8ed545-82fe-4791-a2f5-9c62bb403b81}, !- Handle