
OS:Version,
  {e9a5f2b0-fc4a-41a5-a8a8-a70545bbd82e}, !- Handle
  1.4.0;                                  !- Version Identifier

OS:Construction,
  {9e6a9df3-40cb-4274-91f0-0638b25b614c}, !- Handle
  ASHRAE 189.1-2009 AtticFloor ClimateZone 1-8, !- Name
  ,                                       !- Surface Rendering Name
  {b962f843-898b-4386-85c4-06044cbf4c5a}, !- Layer 1
  {c99dd0e6-9afd-46c9-9f24-61e2da333945}, !- Layer 2
  {b962f843-898b-4386-85c4-06044cbf4c5a}; !- Layer 3

OS:StandardsInformation:Construction,
  {90112819-18f8-494c-80f0-aab16a17c457}, !- Handle
  {9e6a9df3-40cb-4274-91f0-0638b25b614c}, !- Construction Name
  AtticFloor,                             !- Intended Surface Type
  WoodFramed;                             !- Standards Construction Type

OS:Material,
  {b962f843-898b-4386-85c4-06044cbf4c5a}, !- Handle
  1/2IN Gypsum,                           !- Name
  Smooth,                                 !- Roughness
  0.0127,                                 !- Thickness {m}
  0.16,                                   !- Conductivity {W/m-K}
  784.9,                                  !- Density {kg/m3}
  830.000000000001,                       !- Specific Heat {J/kg-K}
  0.9,                                    !- Thermal Absorptance
  0.4,                                    !- Solar Absorptance
  0.4;                                    !- Visible Absorptance

OS:Material,
  {c99dd0e6-9afd-46c9-9f24-61e2da333945}, !- Handle
  AtticFloor Insulation,                  !- Name
  MediumRough,                            !- Roughness
  0.2379,                                 !- Thickness {m}
  0.049,                                  !- Conductivity {W/m-K}
  265,                                    !- Density {kg/m3}
  836.800000000001,                       !- Specific Heat {J/kg-K}
  0.9,                                    !- Thermal Absorptance
  0.7,                                    !- Solar Absorptance
  0.7;                                    !- Visible Absorptance

OS:Construction,
  {95ed9769-8a98-4ab8-97af-bfe27c341591}, !- Handle
  ASHRAE 189.1-2009 ExtRoof IEAD ClimateZone 1, !- Name
  ,                                       !- Surface Rendering Name
  {d9686196-808e-43eb-9f9a-af7256736a10}, !- Layer 1
  {0ce0735f-ddda-4a4e-b022-76de84c81ca0}, !- Layer 2
  {38854e1b-0736-453a-a810-c9ee4156d612}; !- Layer 3

OS:StandardsInformation:Construction,
  {d871092c-bb57-447b-ae99-847648153a6c}, !- Handle
  {95ed9769-8a98-4ab8-97af-bfe27c341591}, !- Construction Name
  ExteriorRoof,                           !- Intended Surface Type
  IEAD;                                   !- Standards Construction Type

OS:Material,
  {d9686196-808e-43eb-9f9a-af7256736a10}, !- Handle
  Roof Membrane,                          !- Name
  VeryRough,                              !- Roughness
  0.0095,                                 !- Thickness {m}
  0.16,                                   !- Conductivity {W/m-K}
  1121.29,                                !- Density {kg/m3}
  1460,                                   !- Specific Heat {J/kg-K}
  0.9,                                    !- Thermal Absorptance
  0.7,                                    !- Solar Absorptance
  0.7;                                    !- Visible Absorptance

OS:Material,
  {0ce0735f-ddda-4a4e-b022-76de84c81ca0}, !- Handle
  Roof Insulation [18],                   !- Name
  MediumRough,                            !- Roughness
  0.1693,                                 !- Thickness {m}
  0.049,                                  !- Conductivity {W/m-K}
  265,                                    !- Density {kg/m3}
  836.800000000001,                       !- Specific Heat {J/kg-K}
  0.9,                                    !- Thermal Absorptance
  0.7,                                    !- Solar Absorptance
  0.7;                                    !- Visible Absorptance

OS:Material,
  {38854e1b-0736-453a-a810-c9ee4156d612}, !- Handle
  Metal Decking,                          !- Name
  MediumSmooth,                           !- Roughness
  0.0015,                                 !- Thickness {m}
  45.006,                                 !- Conductivity {W/m-K}
  7680,                                   !- Density {kg/m3}
  418.4,                                  !- Specific Heat {J/kg-K}
  0.9,                                    !- Thermal Absorptance
  0.6,                                    !- Solar Absorptance
  0.6;                                    !- Visible Absorptance

OS:Construction,
  {553192e3-dbf2-4b81-aca7-a3a00a7164b4}, !- Handle
  ASHRAE 189.1-2009 ExtRoof IEAD ClimateZone 2-5, !- Name
  ,                                       !- Surface Rendering Name
  {d9686196-808e-43eb-9f9a-af7256736a10}, !- Layer 1
  {08c242a7-3859-49e6-a923-320ca52a93d8}, !- Layer 2
  {38854e1b-0736-453a-a810-c9ee4156d612}; !- Layer 3

OS:StandardsInformation:Construction,
  {a413d6c8-918d-4ee2-bc09-a46714d20e7f}, !- Handle
  {553192e3-dbf2-4b81-aca7-a3a00a7164b4}, !- Construction Name
  ExteriorRoof,                           !- Intended Surface Type
  IEAD;                                   !- Standards Construction Type

OS:Material,
  {08c242a7-3859-49e6-a923-320ca52a93d8}, !- Handle
  Roof Insulation [21],                   !- Name
  MediumRough,                            !- Roughness
  0.2105,                                 !- Thickness {m}
  0.049,                                  !- Conductivity {W/m-K}
  265,                                    !- Density {kg/m3}
  836.800000000001,                       !- Specific Heat {J/kg-K}
  0.9,                                    !- Thermal Absorptance
  0.7,                                    !- Solar Absorptance
  0.7;                                    !- Visible Absorptance

OS:Construction,
  {679cb9a7-4c22-48fb-aba8-532412926d16}, !- Handle
  ASHRAE 189.1-2009 ExtRoof IEAD ClimateZone 6, !- Name
  ,                                       !- Surface Rendering Name
  {d9686196-808e-43eb-9f9a-af7256736a10}, !- Layer 1
  {4c607696-eff0-4c36-8de2-85095a8a5b02}, !- Layer 2
  {38854e1b-0736-453a-a810-c9ee4156d612}; !- Layer 3

OS:StandardsInformation:Construction,
  {f793758c-e6ab-4eda-8466-03d760cdd978}, !- Handle
  {679cb9a7-4c22-48fb-aba8-532412926d16}, !- Construction Name
  ExteriorRoof,                           !- Intended Surface Type
  IEAD;                                   !- Standards Construction Type

OS:Material,
  {4c607696-eff0-4c36-8de2-85095a8a5b02}, !- Handle
  Roof Insulation [24],                   !- Name
  MediumRough,                            !- Roughness
  0.260100000000001,                      !- Thickness {m}
  0.049,                                  !- Conductivity {W/m-K}
  265,                                    !- Density {kg/m3}
  836.800000000001,                       !- Specific Heat {J/kg-K}
  0.9,                                    !- Thermal Absorptance
  0.7,                                    !- Solar Absorptance
  0.7;                                    !- Visible Absorptance

OS:Construction,
  {c39589e1-bd53-4942-a881-84d464c0fcd8}, !- Handle
  ASHRAE 189.1-2009 ExtRoof IEAD ClimateZone 7-8, !- Name
  ,                                       !- Surface Rendering Name
  {d9686196-808e-43eb-9f9a-af7256736a10}, !- Layer 1
  {518783a4-34d0-4819-8366-54f7ce696d33}, !- Layer 2
  {38854e1b-0736-453a-a810-c9ee4156d612}; !- Layer 3

OS:StandardsInformation:Construction,
  {7fc30c26-8977-467a-b1e9-cfcc0b116c62}, !- Handle
  {c39589e1-bd53-4942-a881-84d464c0fcd8}, !- Construction Name
  ExteriorRoof,                           !- Intended Surface Type
  IEAD;                                   !- Standards Construction Type

OS:Material,
  {518783a4-34d0-4819-8366-54f7ce696d33}, !- Handle
  Roof Insulation [26],                   !- Name
  MediumRough,                            !- Roughness
  0.2941,                                 !- Thickness {m}
  0.049,                                  !- Conductivity {W/m-K}
  265,                                    !- Density {kg/m3}
  836.800000000001,                       !- Specific Heat {J/kg-K}
  0.9,                                    !- Thermal Absorptance
  0.7,                                    !- Solar Absorptance
  0.7;                                    !- Visible Absorptance

OS:Construction,
  {28e92f4f-69f3-45b9-b539-2d6bfca436f7}, !- Handle
  ASHRAE 189.1-2009 ExtRoof Metal ClimateZone 1, !- Name
  ,                                       !- Surface Rendering Name
  {104043ed-2a14-4d36-80cc-3eeaca40607f}, !- Layer 1
  {ea5898b2-ccd6-47c6-b7ee-7bbb089ff253}, !- Layer 2
  {38854e1b-0736-453a-a810-c9ee4156d612}; !- Layer 3

OS:StandardsInformation:Construction,
  {b312d515-047e-44dc-ab4b-72351eb020b4}, !- Handle
  {28e92f4f-69f3-45b9-b539-2d6bfca436f7}, !- Construction Name
  ExteriorRoof,                           !- Intended Surface Type
  Metal;                                  !- Standards Construction Type

OS:Material,
  {104043ed-2a14-4d36-80cc-3eeaca40607f}, !- Handle
  Metal Roofing,                          !- Name
  MediumSmooth,                           !- Roughness
  0.0015,                                 !- Thickness {m}
  45.006,                                 !- Conductivity {W/m-K}
  7680,                                   !- Density {kg/m3}
  418.4,                                  !- Specific Heat {J/kg-K}
  0.9,                                    !- Thermal Absorptance
  0.6,                                    !- Solar Absorptance
  0.6;                                    !- Visible Absorptance

OS:Material,
  {ea5898b2-ccd6-47c6-b7ee-7bbb089ff253}, !- Handle
  Roof Insulation [19],                   !- Name
  MediumRough,                            !- Roughness
  0.1868,                                 !- Thickness {m}
  0.049,                                  !- Conductivity {W/m-K}
  265,                                    !- Density {kg/m3}
  836.800000000001,                       !- Specific Heat {J/kg-K}
  0.9,                                    !- Thermal Absorptance
  0.7,                                    !- Solar Absorptance
  0.7;                                    !- Visible Absorptance

OS:Construction,
  {4ae55d5e-b0a9-4b7c-b938-5f74e8dcb8c3}, !- Handle
  ASHRAE 189.1-2009 ExtRoof Metal ClimateZone 2-5, !- Name
  ,                                       !- Surface Rendering Name
  {104043ed-2a14-4d36-80cc-3eeaca40607f}, !- Layer 1
  {b037760b-f00e-40be-943e-f33640a30928}, !- Layer 2
  {38854e1b-0736-453a-a810-c9ee4156d612}; !- Layer 3

OS:StandardsInformation:Construction,
  {8fc6c569-31dc-422a-9ac2-54712d9c9cc7}, !- Handle
  {4ae55d5e-b0a9-4b7c-b938-5f74e8dcb8c3}, !- Construction Name
  ExteriorRoof,                           !- Intended Surface Type
  Metal;                                  !- Standards Construction Type

OS:Material,
  {b037760b-f00e-40be-943e-f33640a30928}, !- Handle
  Roof Insulation [22],                   !- Name
  MediumRough,                            !- Roughness
  0.2358,                                 !- Thickness {m}
  0.049,                                  !- Conductivity {W/m-K}
  265,                                    !- Density {kg/m3}
  836.800000000001,                       !- Specific Heat {J/kg-K}
  0.9,                                    !- Thermal Absorptance
  0.7,                                    !- Solar Absorptance
  0.7;                                    !- Visible Absorptance

OS:Construction,
  {c98f178b-f70e-4411-8dff-4bda69bec743}, !- Handle
  ASHRAE 189.1-2009 ExtRoof Metal ClimateZone 6, !- Name
  ,                                       !- Surface Rendering Name
  {104043ed-2a14-4d36-80cc-3eeaca40607f}, !- Layer 1
  {3385cf6d-95e2-4782-9095-3b38c3eab4fa}, !- Layer 2
  {38854e1b-0736-453a-a810-c9ee4156d612}; !- Layer 3

OS:StandardsInformation:Construction,
  {f3848dc1-a51b-4780-ad7a-e8ee535214f0}, !- Handle
  {c98f178b-f70e-4411-8dff-4bda69bec743}, !- Construction Name
  ExteriorRoof,                           !- Intended Surface Type
  Metal;                                  !- Standards Construction Type

OS:Material,
  {3385cf6d-95e2-4782-9095-3b38c3eab4fa}, !- Handle
  Roof Insulation [25],                   !- Name
  MediumRough,                            !- Roughness
  0.263,                                  !- Thickness {m}
  0.049,                                  !- Conductivity {W/m-K}
  265,                                    !- Density {kg/m3}
  836.800000000001,                       !- Specific Heat {J/kg-K}
  0.9,                                    !- Thermal Absorptance
  0.7,                                    !- Solar Absorptance
  0.7;                                    !- Visible Absorptance

OS:Construction,
  {ecb8a40f-56ab-404a-87ed-35558bc1e180}, !- Handle
  ASHRAE 189.1-2009 ExtRoof Metal ClimateZone 7-8, !- Name
  ,                                       !- Surface Rendering Name
  {104043ed-2a14-4d36-80cc-3eeaca40607f}, !- Layer 1
  {a6935623-da08-4ea4-a926-5b7b2550902c}, !- Layer 2
  {38854e1b-0736-453a-a810-c9ee4156d612}; !- Layer 3

OS:StandardsInformation:Construction,
  {344384b5-a382-4294-bcc7-2e66c8d4d0ab}, !- Handle
  {ecb8a40f-56ab-404a-87ed-35558bc1e180}, !- Construction Name
  ExteriorRoof,                           !- Intended Surface Type
  Metal;                                  !- Standards Construction Type

OS:Material,
  {a6935623-da08-4ea4-a926-5b7b2550902c}, !- Handle
  Roof Insulation [27],                   !- Name
  MediumRough,                            !- Roughness
  0.297000000000001,                      !- Thickness {m}
  0.049,                                  !- Conductivity {W/m-K}
  265,                                    !- Density {kg/m3}
  836.800000000001,                       !- Specific Heat {J/kg-K}
  0.9,                                    !- Thermal Absorptance
  0.7,                                    !- Solar Absorptance
  0.7;                                    !- Visible Absorptance

OS:Construction,
  {f821c500-91c2-416f-a7af-172941dae10d}, !- Handle
  ASHRAE 189.1-2009 ExtWall Mass ClimateZone 1, !- Name
  ,                                       !- Surface Rendering Name
  {2f3999bd-3b7e-4747-ba82-e5556f40db16}, !- Layer 1
  {2f1be92b-2623-4256-8a2f-9787e9971194}, !- Layer 2
  {382931a9-a52b-4f66-9fec-77b250375ce5}, !- Layer 3
  {b962f843-898b-4386-85c4-06044cbf4c5a}; !- Layer 4

OS:StandardsInformation:Construction,
  {6256f73b-e736-42fb-8651-0062dbd26775}, !- Handle
  {f821c500-91c2-416f-a7af-172941dae10d}, !- Construction Name
  ExteriorWall,                           !- Intended Surface Type
  Mass;                                   !- Standards Construction Type

OS:Material,
  {2f3999bd-3b7e-4747-ba82-e5556f40db16}, !- Handle
  1IN Stucco,                             !- Name
  Smooth,                                 !- Roughness
  0.0253,                                 !- Thickness {m}
  0.691799999999999,                      !- Conductivity {W/m-K}
  1858,                                   !- Density {kg/m3}
  836.999999999999,                       !- Specific Heat {J/kg-K}
  0.9,                                    !- Thermal Absorptance
  0.92,                                   !- Solar Absorptance
  0.92;                                   !- Visible Absorptance

OS:Material,
  {2f1be92b-2623-4256-8a2f-9787e9971194}, !- Handle
  8IN Concrete HW,                        !- Name
  MediumRough,                            !- Roughness
  0.2033,                                 !- Thickness {m}
  1.72959999999999,                       !- Conductivity {W/m-K}
  2242.99999999999,                       !- Density {kg/m3}
  836.999999999999,                       !- Specific Heat {J/kg-K}
  0.9,                                    !- Thermal Absorptance
  0.65,                                   !- Solar Absorptance
  0.65;                                   !- Visible Absorptance

OS:Material,
  {382931a9-a52b-4f66-9fec-77b250375ce5}, !- Handle
  Wall Insulation [31],                   !- Name
  MediumRough,                            !- Roughness
  0.0337000000000001,                     !- Thickness {m}
  0.0432,                                 !- Conductivity {W/m-K}
  91,                                     !- Density {kg/m3}
  836.999999999999,                       !- Specific Heat {J/kg-K}
  0.9,                                    !- Thermal Absorptance
  0.5,                                    !- Solar Absorptance
  0.5;                                    !- Visible Absorptance

OS:Construction,
  {1abc5870-bf8d-4beb-b353-2c947050ecce}, !- Handle
  ASHRAE 189.1-2009 ExtWall Mass ClimateZone 2, !- Name
  ,                                       !- Surface Rendering Name
  {2f3999bd-3b7e-4747-ba82-e5556f40db16}, !- Layer 1
  {2f1be92b-2623-4256-8a2f-9787e9971194}, !- Layer 2
  {e4ef4995-7201-489b-841a-234ca64eca0f}, !- Layer 3
  {b962f843-898b-4386-85c4-06044cbf4c5a}; !- Layer 4

OS:StandardsInformation:Construction,
  {cb3f9e4c-9bd1-4c9e-89d7-e8a53e8f9442}, !- Handle
  {1abc5870-bf8d-4beb-b353-2c947050ecce}, !- Construction Name
  ExteriorWall,                           !- Intended Surface Type
  Mass;                                   !- Standards Construction Type

OS:Material,
  {e4ef4995-7201-489b-841a-234ca64eca0f}, !- Handle
  Wall Insulation [35],                   !- Name
  MediumRough,                            !- Roughness
  0.0452,                                 !- Thickness {m}
  0.0432,                                 !- Conductivity {W/m-K}
  91,                                     !- Density {kg/m3}
  836.999999999999,                       !- Specific Heat {J/kg-K}
  0.9,                                    !- Thermal Absorptance
  0.5,                                    !- Solar Absorptance
  0.5;                                    !- Visible Absorptance

OS:Construction,
  {0b9b92da-6c60-4ac4-94c5-cb96f99640d3}, !- Handle
  ASHRAE 189.1-2009 ExtWall Mass ClimateZone 3, !- Name
  ,                                       !- Surface Rendering Name
  {2f3999bd-3b7e-4747-ba82-e5556f40db16}, !- Layer 1
  {2f1be92b-2623-4256-8a2f-9787e9971194}, !- Layer 2
  {87666c91-d1dc-475f-b8fe-85bfdee60f4f}, !- Layer 3
  {b962f843-898b-4386-85c4-06044cbf4c5a}; !- Layer 4

OS:StandardsInformation:Construction,
  {df5237dc-ce93-473f-9327-ddd5e1d62f3a}, !- Handle
  {0b9b92da-6c60-4ac4-94c5-cb96f99640d3}, !- Construction Name
  ExteriorWall,                           !- Intended Surface Type
  Mass;                                   !- Standards Construction Type

OS:Material,
  {87666c91-d1dc-475f-b8fe-85bfdee60f4f}, !- Handle
  Wall Insulation [36],                   !- Name
  MediumRough,                            !- Roughness
  0.0565999999999999,                     !- Thickness {m}
  0.0432,                                 !- Conductivity {W/m-K}
  91,                                     !- Density {kg/m3}
  836.999999999999,                       !- Specific Heat {J/kg-K}
  0.9,                                    !- Thermal Absorptance
  0.5,                                    !- Solar Absorptance
  0.5;                                    !- Visible Absorptance

OS:Construction,
  {13e9dbb2-89f9-4e24-ba1a-a99d081db42a}, !- Handle
  ASHRAE 189.1-2009 ExtWall Mass ClimateZone 4, !- Name
  ,                                       !- Surface Rendering Name
  {2f3999bd-3b7e-4747-ba82-e5556f40db16}, !- Layer 1
  {2f1be92b-2623-4256-8a2f-9787e9971194}, !- Layer 2
  {d0b71a50-1b9b-488a-8f46-2995fc91aa3e}, !- Layer 3
  {b962f843-898b-4386-85c4-06044cbf4c5a}; !- Layer 4

OS:StandardsInformation:Construction,
  {e8af6c2d-aa30-473d-a8bd-9798282fbbb6}, !- Handle
  {13e9dbb2-89f9-4e24-ba1a-a99d081db42a}, !- Construction Name
  ExteriorWall,                           !- Intended Surface Type
  Mass;                                   !- Standards Construction Type

OS:Material,
  {d0b71a50-1b9b-488a-8f46-2995fc91aa3e}, !- Handle
  Wall Insulation [37],                   !- Name
  MediumRough,                            !- Roughness
  0.0680999999999999,                     !- Thickness {m}
  0.0432,                                 !- Conductivity {W/m-K}
  91,                                     !- Density {kg/m3}
  836.999999999999,                       !- Specific Heat {J/kg-K}
  0.9,                                    !- Thermal Absorptance
  0.5,                                    !- Solar Absorptance
  0.5;                                    !- Visible Absorptance

OS:Construction,
  {3164923f-3297-44f4-9b8e-329fe77dabd2}, !- Handle
  ASHRAE 189.1-2009 ExtWall Mass ClimateZone 5, !- Name
  ,                                       !- Surface Rendering Name
  {2f3999bd-3b7e-4747-ba82-e5556f40db16}, !- Layer 1
  {2f1be92b-2623-4256-8a2f-9787e9971194}, !- Layer 2
  {755b8397-0e50-457c-ad6f-c4868571d3f9}, !- Layer 3
  {b962f843-898b-4386-85c4-06044cbf4c5a}; !- Layer 4

OS:StandardsInformation:Construction,
  {f2e52d1b-ede4-4dd2-8ae5-3620310b923e}, !- Handle
  {3164923f-3297-44f4-9b8e-329fe77dabd2}, !- Construction Name
  ExteriorWall,                           !- Intended Surface Type
  Mass;                                   !- Standards Construction Type

OS:Material,
  {755b8397-0e50-457c-ad6f-c4868571d3f9}, !- Handle
  Wall Insulation [40],                   !- Name
  MediumRough,                            !- Roughness
  0.0793999999999999,                     !- Thickness {m}
  0.0432,                                 !- Conductivity {W/m-K}
  91,                                     !- Density {kg/m3}
  836.999999999999,                       !- Specific Heat {J/kg-K}
  0.9,                                    !- Thermal Absorptance
  0.5,                                    !- Solar Absorptance
  0.5;                                    !- Visible Absorptance

OS:Construction,
  {cbe54445-fe4e-4847-bf32-e5d1be9c6bce}, !- Handle
  ASHRAE 189.1-2009 ExtWall Mass ClimateZone 6, !- Name
  ,                                       !- Surface Rendering Name
  {2f3999bd-3b7e-4747-ba82-e5556f40db16}, !- Layer 1
  {2f1be92b-2623-4256-8a2f-9787e9971194}, !- Layer 2
  {5b9b2447-2b6f-40cb-b8ff-437403c61a16}, !- Layer 3
  {b962f843-898b-4386-85c4-06044cbf4c5a}; !- Layer 4

OS:StandardsInformation:Construction,
  {a05079e4-1944-4c98-a40d-378472ef784e}, !- Handle
  {cbe54445-fe4e-4847-bf32-e5d1be9c6bce}, !- Construction Name
  ExteriorWall,                           !- Intended Surface Type
  Mass;                                   !- Standards Construction Type

OS:Material,
  {5b9b2447-2b6f-40cb-b8ff-437403c61a16}, !- Handle
  Wall Insulation [42],                   !- Name
  MediumRough,                            !- Roughness
  0.0913999999999999,                     !- Thickness {m}
  0.0432,                                 !- Conductivity {W/m-K}
  91,                                     !- Density {kg/m3}
  836.999999999999,                       !- Specific Heat {J/kg-K}
  0.9,                                    !- Thermal Absorptance
  0.5,                                    !- Solar Absorptance
  0.5;                                    !- Visible Absorptance

OS:Construction,
  {d8ac00e7-b50f-4ea3-aa0f-3e4e700504c8}, !- Handle
  ASHRAE 189.1-2009 ExtWall Mass ClimateZone 7-8, !- Name
  ,                                       !- Surface Rendering Name
  {2f3999bd-3b7e-4747-ba82-e5556f40db16}, !- Layer 1
  {2f1be92b-2623-4256-8a2f-9787e9971194}, !- Layer 2
  {4d62e4a0-df61-475d-92c1-efe3e6a6c59c}, !- Layer 3
  {b962f843-898b-4386-85c4-06044cbf4c5a}; !- Layer 4

OS:StandardsInformation:Construction,
  {3e9ccc87-bb74-4e03-acbc-67788100f108}, !- Handle
  {d8ac00e7-b50f-4ea3-aa0f-3e4e700504c8}, !- Construction Name
  ExteriorWall,                           !- Intended Surface Type
  Mass;                                   !- Standards Construction Type

OS:Material,
  {4d62e4a0-df61-475d-92c1-efe3e6a6c59c}, !- Handle
  Wall Insulation [44],                   !- Name
  MediumRough,                            !- Roughness
  0.1104,                                 !- Thickness {m}
  0.0432,                                 !- Conductivity {W/m-K}
  91,                                     !- Density {kg/m3}
  836.999999999999,                       !- Specific Heat {J/kg-K}
  0.9,                                    !- Thermal Absorptance
  0.5,                                    !- Solar Absorptance
  0.5;                                    !- Visible Absorptance

OS:Construction,
  {a6b1eab5-ea59-4572-a40e-1cb149b8ec16}, !- Handle
  ASHRAE 189.1-2009 ExtWall Mass ClimateZone alt-res 1, !- Name
  ,                                       !- Surface Rendering Name
  {2f3999bd-3b7e-4747-ba82-e5556f40db16}, !- Layer 1
  {2f1be92b-2623-4256-8a2f-9787e9971194}, !- Layer 2
  {e4ef4995-7201-489b-841a-234ca64eca0f}, !- Layer 3
  {b962f843-898b-4386-85c4-06044cbf4c5a}; !- Layer 4

OS:StandardsInformation:Construction,
  {241238bf-a29a-413d-abdc-dd11de37de92}, !- Handle
  {a6b1eab5-ea59-4572-a40e-1cb149b8ec16}, !- Construction Name
  ExteriorWall,                           !- Intended Surface Type
  Mass;                                   !- Standards Construction Type

OS:Construction,
  {c494b4f3-9a6f-40e1-9f10-40405d68aea8}, !- Handle
  ASHRAE 189.1-2009 ExtWall Mass ClimateZone alt-res 2, !- Name
  ,                                       !- Surface Rendering Name
  {2f3999bd-3b7e-4747-ba82-e5556f40db16}, !- Layer 1
  {2f1be92b-2623-4256-8a2f-9787e9971194}, !- Layer 2
  {87666c91-d1dc-475f-b8fe-85bfdee60f4f}, !- Layer 3
  {b962f843-898b-4386-85c4-06044cbf4c5a}; !- Layer 4

OS:StandardsInformation:Construction,
  {31ff199b-3384-40bc-8bb7-843fc450bf95}, !- Handle
  {c494b4f3-9a6f-40e1-9f10-40405d68aea8}, !- Construction Name
  ExteriorWall,                           !- Intended Surface Type
  Mass;                                   !- Standards Construction Type

OS:Construction,
  {584cc8db-e6ff-44eb-9491-c406510dce53}, !- Handle
  ASHRAE 189.1-2009 ExtWall Mass ClimateZone alt-res 3, !- Name
  ,                                       !- Surface Rendering Name
  {2f3999bd-3b7e-4747-ba82-e5556f40db16}, !- Layer 1
  {2f1be92b-2623-4256-8a2f-9787e9971194}, !- Layer 2
  {d0b71a50-1b9b-488a-8f46-2995fc91aa3e}, !- Layer 3
  {b962f843-898b-4386-85c4-06044cbf4c5a}; !- Layer 4

OS:StandardsInformation:Construction,
  {fc04e948-6702-424b-bc2a-b55234365a75}, !- Handle
  {584cc8db-e6ff-44eb-9491-c406510dce53}, !- Construction Name
  ExteriorWall,                           !- Intended Surface Type
  Mass;                                   !- Standards Construction Type

OS:Construction,
  {98b01dd1-7063-400e-8208-e331ac538435}, !- Handle
  ASHRAE 189.1-2009 ExtWall Mass ClimateZone alt-res 4, !- Name
  ,                                       !- Surface Rendering Name
  {2f3999bd-3b7e-4747-ba82-e5556f40db16}, !- Layer 1
  {2f1be92b-2623-4256-8a2f-9787e9971194}, !- Layer 2
  {755b8397-0e50-457c-ad6f-c4868571d3f9}, !- Layer 3
  {b962f843-898b-4386-85c4-06044cbf4c5a}; !- Layer 4

OS:StandardsInformation:Construction,
  {e29f097b-a170-4e21-b616-30bd1aef47c4}, !- Handle
  {98b01dd1-7063-400e-8208-e331ac538435}, !- Construction Name
  ExteriorWall,                           !- Intended Surface Type
  Mass;                                   !- Standards Construction Type

OS:Construction,
  {166ca1a8-c4f3-4588-9794-1196f43498c7}, !- Handle
  ASHRAE 189.1-2009 ExtWall Mass ClimateZone alt-res 5, !- Name
  ,                                       !- Surface Rendering Name
  {2f3999bd-3b7e-4747-ba82-e5556f40db16}, !- Layer 1
  {2f1be92b-2623-4256-8a2f-9787e9971194}, !- Layer 2
  {5b9b2447-2b6f-40cb-b8ff-437403c61a16}, !- Layer 3
  {b962f843-898b-4386-85c4-06044cbf4c5a}; !- Layer 4

OS:StandardsInformation:Construction,
  {fffdbac6-2669-4af3-ada8-7fa2da59014a}, !- Handle
  {166ca1a8-c4f3-4588-9794-1196f43498c7}, !- Construction Name
  ExteriorWall,                           !- Intended Surface Type
  Mass;                                   !- Standards Construction Type

OS:Construction,
  {e4816f35-0c0c-49c5-8850-85d5c93134a6}, !- Handle
  ASHRAE 189.1-2009 ExtWall Mass ClimateZone alt-res 6, !- Name
  ,                                       !- Surface Rendering Name
  {2f3999bd-3b7e-4747-ba82-e5556f40db16}, !- Layer 1
  {2f1be92b-2623-4256-8a2f-9787e9971194}, !- Layer 2
  {4d62e4a0-df61-475d-92c1-efe3e6a6c59c}, !- Layer 3
  {b962f843-898b-4386-85c4-06044cbf4c5a}; !- Layer 4

OS:StandardsInformation:Construction,
  {d32b6c8a-4346-46a1-bc99-7b12951499fb}, !- Handle
  {e4816f35-0c0c-49c5-8850-85d5c93134a6}, !- Construction Name
  ExteriorWall,                           !- Intended Surface Type
  Mass;                                   !- Standards Construction Type

OS:Construction,
  {0dcea71c-6152-4451-b0bb-21d44501da8e}, !- Handle
  ASHRAE 189.1-2009 ExtWall Mass ClimateZone alt-res 7, !- Name
  ,                                       !- Surface Rendering Name
  {2f3999bd-3b7e-4747-ba82-e5556f40db16}, !- Layer 1
  {2f1be92b-2623-4256-8a2f-9787e9971194}, !- Layer 2
  {4d62e4a0-df61-475d-92c1-efe3e6a6c59c}, !- Layer 3
  {b962f843-898b-4386-85c4-06044cbf4c5a}; !- Layer 4

OS:StandardsInformation:Construction,
  {d1314435-75a0-4ce5-baf0-ae53fce6cfa8}, !- Handle
  {0dcea71c-6152-4451-b0bb-21d44501da8e}, !- Construction Name
  ExteriorWall,                           !- Intended Surface Type