
OS:Version,
  {3150d419-27d4-4b10-b235-91815c2e5f0d}, !- Handle
  1.2.3;                                  !- Version Identifier

OS:Construction,
  {8349c3ef-1361-4938-8190-377f1650e299}, !- Handle
  ASHRAE 189.1-2009 AtticFloor ClimateZone 1-8, !- Name
  ,                                       !- Surface Rendering Name
  {88edbaed-dec3-45fa-a50b-57ca37abff3b}, !- Layer 1
  {ee2aae3b-1205-4f97-9019-da94030ffb6e}, !- Layer 2
  {88edbaed-dec3-45fa-a50b-57ca37abff3b}; !- Layer 3

OS:StandardsInformation:Construction,
  {18f8eaad-0d0b-4fe2-ace2-cfdde27ba296}, !- Handle
  {8349c3ef-1361-4938-8190-377f1650e299}, !- Construction Name
  AtticFloor,                             !- Intended Surface Type
  WoodFramed;                             !- Standards Construction Type

OS:Material,
  {88edbaed-dec3-45fa-a50b-57ca37abff3b}, !- Handle
  1/2IN Gypsum,                           !- Name
  Smooth,                                 !- Roughness
  0.0127,                                 !- Thickness {m}
  0.16,                                   !- Conductivity {W/m-K}
  784.9,                                  !- Density {kg/m3}
  830.000000000001,                       !- Specific Heat {J/kg-K}
  0.9,                                    !- Thermal Absorptance
  0.92,                                   !- Solar Absorptance
  0.92;                                   !- Visible Absorptance

OS:Material,
  {ee2aae3b-1205-4f97-9019-da94030ffb6e}, !- Handle
  AtticFloor Insulation,                  !- Name
  MediumRough,                            !- Roughness
  0.2379,                                 !- Thickness {m}
  0.049,                                  !- Conductivity {W/m-K}
  265,                                    !- Density {kg/m3}
  836.800000000001,                       !- Specific Heat {J/kg-K}
  0.9,                                    !- Thermal Absorptance
  0.7,                                    !- Solar Absorptance
  0.7;                                    !- Visible Absorptance

OS:Construction,
  {99fa3006-296b-40ae-8351-793f83eb8de7}, !- Handle
  ASHRAE 189.1-2009 ExtRoof IEAD ClimateZone 1, !- Name
  ,                                       !- Surface Rendering Name
  {0f674c85-120a-4654-b360-af9e1f412f06}, !- Layer 1
  {ddbe84a9-57a6-47ed-91d7-5aa44ab209cf}, !- Layer 2
  {e2ed3215-0198-42a4-a511-8cb472fd2034}; !- Layer 3

OS:StandardsInformation:Construction,
  {df681f49-fc7d-4cca-b407-f9db5e093bc1}, !- Handle
  {99fa3006-296b-40ae-8351-793f83eb8de7}, !- Construction Name
  ExteriorRoof,                           !- Intended Surface Type
  IEAD;                                   !- Standards Construction Type

OS:Material,
  {0f674c85-120a-4654-b360-af9e1f412f06}, !- Handle
  Roof Membrane,                          !- Name
  VeryRough,                              !- Roughness
  0.0095,                                 !- Thickness {m}
  0.16,                                   !- Conductivity {W/m-K}
  1121.29,                                !- Density {kg/m3}
  1460,                                   !- Specific Heat {J/kg-K}
  0.9,                                    !- Thermal Absorptance
  0.7,                                    !- Solar Absorptance
  0.7;                                    !- Visible Absorptance

OS:Material,
  {ddbe84a9-57a6-47ed-91d7-5aa44ab209cf}, !- Handle
  Roof Insulation [18],                   !- Name
  MediumRough,                            !- Roughness
  0.1693,                                 !- Thickness {m}
  0.049,                                  !- Conductivity {W/m-K}
  265,                                    !- Density {kg/m3}
  836.800000000001,                       !- Specific Heat {J/kg-K}
  0.9,                                    !- Thermal Absorptance
  0.7,                                    !- Solar Absorptance
  0.7;                                    !- Visible Absorptance

OS:Material,
  {e2ed3215-0198-42a4-a511-8cb472fd2034}, !- Handle
  Metal Decking,                          !- Name
  MediumSmooth,                           !- Roughness
  0.0015,                                 !- Thickness {m}
  45.006,                                 !- Conductivity {W/m-K}
  7680,                                   !- Density {kg/m3}
  418.4,                                  !- Specific Heat {J/kg-K}
  0.9,                                    !- Thermal Absorptance
  0.7,                                    !- Solar Absorptance
  0.3;                                    !- Visible Absorptance

OS:Construction,
  {99d2f908-107c-4032-8598-6819b45d2f71}, !- Handle
  ASHRAE 189.1-2009 ExtRoof IEAD ClimateZone 2-5, !- Name
  ,                                       !- Surface Rendering Name
  {0f674c85-120a-4654-b360-af9e1f412f06}, !- Layer 1
  {adaf6988-b877-40d8-a44d-432a3123cc32}, !- Layer 2
  {e2ed3215-0198-42a4-a511-8cb472fd2034}; !- Layer 3

OS:StandardsInformation:Construction,
  {13c22d9c-11aa-4da1-a567-4c8104ad764c}, !- Handle
  {99d2f908-107c-4032-8598-6819b45d2f71}, !- Construction Name
  ExteriorRoof,                           !- Intended Surface Type
  IEAD;                                   !- Standards Construction Type

OS:Material,
  {adaf6988-b877-40d8-a44d-432a3123cc32}, !- Handle
  Roof Insulation [21],                   !- Name
  MediumRough,                            !- Roughness
  0.2105,                                 !- Thickness {m}
  0.049,                                  !- Conductivity {W/m-K}
  265,                                    !- Density {kg/m3}
  836.800000000001,                       !- Specific Heat {J/kg-K}
  0.9,                                    !- Thermal Absorptance
  0.7,                                    !- Solar Absorptance
  0.7;                                    !- Visible Absorptance

OS:Construction,
  {153f95a4-483b-467f-bcb3-ef55b90644b1}, !- Handle
  ASHRAE 189.1-2009 ExtRoof IEAD ClimateZone 6, !- Name
  ,                                       !- Surface Rendering Name
  {0f674c85-120a-4654-b360-af9e1f412f06}, !- Layer 1
  {a1f580d3-8738-4c08-ab7a-5c32d6d5b013}, !- Layer 2
  {e2ed3215-0198-42a4-a511-8cb472fd2034}; !- Layer 3

OS:StandardsInformation:Construction,
  {9a05354f-eb20-483e-82ea-d93e479a8641}, !- Handle
  {153f95a4-483b-467f-bcb3-ef55b90644b1}, !- Construction Name
  ExteriorRoof,                           !- Intended Surface Type
  IEAD;                                   !- Standards Construction Type

OS:Material,
  {a1f580d3-8738-4c08-ab7a-5c32d6d5b013}, !- Handle
  Roof Insulation [24],                   !- Name
  MediumRough,                            !- Roughness
  0.260100000000001,                      !- Thickness {m}
  0.049,                                  !- Conductivity {W/m-K}
  265,                                    !- Density {kg/m3}
  836.800000000001,                       !- Specific Heat {J/kg-K}
  0.9,                                    !- Thermal Absorptance
  0.7,                                    !- Solar Absorptance
  0.7;                                    !- Visible Absorptance

OS:Construction,
  {aea9145d-a9fa-4a86-97b5-e519dbaf9bdd}, !- Handle
  ASHRAE 189.1-2009 ExtRoof IEAD ClimateZone 7-8, !- Name
  ,                                       !- Surface Rendering Name
  {0f674c85-120a-4654-b360-af9e1f412f06}, !- Layer 1
  {1a0497d8-aff5-423c-8e0f-57ae1e8dece6}, !- Layer 2
  {e2ed3215-0198-42a4-a511-8cb472fd2034}; !- Layer 3

OS:StandardsInformation:Construction,
  {26d6c3b0-b19d-4b77-9126-9d718bcbf462}, !- Handle
  {aea9145d-a9fa-4a86-97b5-e519dbaf9bdd}, !- Construction Name
  ExteriorRoof,                           !- Intended Surface Type
  IEAD;                                   !- Standards Construction Type

OS:Material,
  {1a0497d8-aff5-423c-8e0f-57ae1e8dece6}, !- Handle
  Roof Insulation [26],                   !- Name
  MediumRough,                            !- Roughness
  0.2941,                                 !- Thickness {m}
  0.049,                                  !- Conductivity {W/m-K}
  265,                                    !- Density {kg/m3}
  836.800000000001,                       !- Specific Heat {J/kg-K}
  0.9,                                    !- Thermal Absorptance
  0.7,                                    !- Solar Absorptance
  0.7;                                    !- Visible Absorptance

OS:Construction,
  {2ed62cdf-a58d-4480-b590-2ead389d2fc6}, !- Handle
  ASHRAE 189.1-2009 ExtRoof Metal ClimateZone 1, !- Name
  ,                                       !- Surface Rendering Name
  {09448c26-21f2-480a-8495-28fc35d677f1}, !- Layer 1
  {3cd8e65d-1134-4153-8a58-dce6007c8023}; !- Layer 2

OS:StandardsInformation:Construction,
  {5f64be7b-8190-4afa-933d-f3d92a538cdb}, !- Handle
  {2ed62cdf-a58d-4480-b590-2ead389d2fc6}, !- Construction Name
  ExteriorRoof,                           !- Intended Surface Type
  Metal;                                  !- Standards Construction Type

OS:Material,
  {09448c26-21f2-480a-8495-28fc35d677f1}, !- Handle
  Metal Roofing,                          !- Name
  MediumSmooth,                           !- Roughness
  0.0015,                                 !- Thickness {m}
  45.006,                                 !- Conductivity {W/m-K}
  7680,                                   !- Density {kg/m3}
  418.4,                                  !- Specific Heat {J/kg-K}
  0.9,                                    !- Thermal Absorptance
  0.3,                                    !- Solar Absorptance
  0.3;                                    !- Visible Absorptance

OS:Material,
  {3cd8e65d-1134-4153-8a58-dce6007c8023}, !- Handle
  Roof Insulation [19],                   !- Name
  MediumRough,                            !- Roughness
  0.1868,                                 !- Thickness {m}
  0.049,                                  !- Conductivity {W/m-K}
  265,                                    !- Density {kg/m3}
  836.800000000001,                       !- Specific Heat {J/kg-K}
  0.9,                                    !- Thermal Absorptance
  0.7,                                    !- Solar Absorptance
  0.7;                                    !- Visible Absorptance

OS:Construction,
  {e737e995-e641-439a-a4a4-260e4083b258}, !- Handle
  ASHRAE 189.1-2009 ExtRoof Metal ClimateZone 2-5, !- Name
  ,                                       !- Surface Rendering Name
  {09448c26-21f2-480a-8495-28fc35d677f1}, !- Layer 1
  {ebe27e3f-04ce-41fb-acf6-6db2fa77f195}; !- Layer 2

OS:StandardsInformation:Construction,
  {99538990-a988-4b10-9b26-8dd7dd0bcd80}, !- Handle
  {e737e995-e641-439a-a4a4-260e4083b258}, !- Construction Name
  ExteriorRoof,                           !- Intended Surface Type
  Metal;                                  !- Standards Construction Type

OS:Material,
  {ebe27e3f-04ce-41fb-acf6-6db2fa77f195}, !- Handle
  Roof Insulation [22],                   !- Name
  MediumRough,                            !- Roughness
  0.2358,                                 !- Thickness {m}
  0.049,                                  !- Conductivity {W/m-K}
  265,                                    !- Density {kg/m3}
  836.800000000001,                       !- Specific Heat {J/kg-K}
  0.9,                                    !- Thermal Absorptance
  0.7,                                    !- Solar Absorptance
  0.7;                                    !- Visible Absorptance

OS:Construction,
  {2906b2f3-3bda-4036-906b-9cb4c8a4cff7}, !- Handle
  ASHRAE 189.1-2009 ExtRoof Metal ClimateZone 6, !- Name
  ,                                       !- Surface Rendering Name
  {09448c26-21f2-480a-8495-28fc35d677f1}, !- Layer 1
  {04872386-cc55-45b9-aa64-f69db50f351f}; !- Layer 2

OS:StandardsInformation:Construction,
  {49a5e08f-0114-4c81-b844-4f761b285a0b}, !- Handle
  {2906b2f3-3bda-4036-906b-9cb4c8a4cff7}, !- Construction Name
  ExteriorRoof,                           !- Intended Surface Type
  Metal;                                  !- Standards Construction Type

OS:Material,
  {04872386-cc55-45b9-aa64-f69db50f351f}, !- Handle
  Roof Insulation [25],                   !- Name
  MediumRough,                            !- Roughness
  0.263,                                  !- Thickness {m}
  0.049,                                  !- Conductivity {W/m-K}
  265,                                    !- Density {kg/m3}
  836.800000000001,                       !- Specific Heat {J/kg-K}
  0.9,                                    !- Thermal Absorptance
  0.7,                                    !- Solar Absorptance
  0.7;                                    !- Visible Absorptance

OS:Construction,
  {99e99d7c-497f-4b15-938f-e55066e41310}, !- Handle
  ASHRAE 189.1-2009 ExtRoof Metal ClimateZone 7-8, !- Name
  ,                                       !- Surface Rendering Name
  {09448c26-21f2-480a-8495-28fc35d677f1}, !- Layer 1
  {e901d97b-db4f-4dc4-9313-38a6a03dbded}; !- Layer 2

OS:StandardsInformation:Construction,
  {eba82536-f514-4d27-bda0-b8a37f666dae}, !- Handle
  {99e99d7c-497f-4b15-938f-e55066e41310}, !- Construction Name
  ExteriorRoof,                           !- Intended Surface Type
  Metal;                                  !- Standards Construction Type

OS:Material,
  {e901d97b-db4f-4dc4-9313-38a6a03dbded}, !- Handle
  Roof Insulation [27],                   !- Name
  MediumRough,                            !- Roughness
  0.297000000000001,                      !- Thickness {m}
  0.049,                                  !- Conductivity {W/m-K}
  265,                                    !- Density {kg/m3}
  836.800000000001,                       !- Specific Heat {J/kg-K}
  0.9,                                    !- Thermal Absorptance
  0.7,                                    !- Solar Absorptance
  0.7;                                    !- Visible Absorptance

OS:Construction,
  {6a16b96e-6254-4101-9fe8-091f17d7d6af}, !- Handle
  ASHRAE 189.1-2009 ExtWall Mass ClimateZone 1, !- Name
  ,                                       !- Surface Rendering Name
  {548c444b-35af-402d-a57e-c23f00304398}, !- Layer 1
  {3e2aa5c6-83d1-4c1e-9cbb-bcbc6ae55362}, !- Layer 2
  {7acd24a7-3dfc-4700-9028-21875afa1330}, !- Layer 3
  {88edbaed-dec3-45fa-a50b-57ca37abff3b}; !- Layer 4

OS:StandardsInformation:Construction,
  {c97ab8a3-d29b-4500-a514-c3651a42849a}, !- Handle
  {6a16b96e-6254-4101-9fe8-091f17d7d6af}, !- Construction Name
  ExteriorWall,                           !- Intended Surface Type
  Mass;                                   !- Standards Construction Type

OS:Material,
  {548c444b-35af-402d-a57e-c23f00304398}, !- Handle
  1IN Stucco,                             !- Name
  Smooth,                                 !- Roughness
  0.0253,                                 !- Thickness {m}
  0.691799999999999,                      !- Conductivity {W/m-K}
  1858,                                   !- Density {kg/m3}
  836.999999999999,                       !- Specific Heat {J/kg-K}
  0.9,                                    !- Thermal Absorptance
  0.92,                                   !- Solar Absorptance
  0.92;                                   !- Visible Absorptance

OS:Material,
  {3e2aa5c6-83d1-4c1e-9cbb-bcbc6ae55362}, !- Handle
  8IN Concrete HW,                        !- Name
  MediumRough,                            !- Roughness
  0.2033,                                 !- Thickness {m}
  1.72959999999999,                       !- Conductivity {W/m-K}
  2242.99999999999,                       !- Density {kg/m3}
  836.999999999999,                       !- Specific Heat {J/kg-K}
  0.9,                                    !- Thermal Absorptance
  0.65,                                   !- Solar Absorptance
  0.65;                                   !- Visible Absorptance

OS:Material,
  {7acd24a7-3dfc-4700-9028-21875afa1330}, !- Handle
  Wall Insulation [31],                   !- Name
  MediumRough,                            !- Roughness
  0.0337000000000001,                     !- Thickness {m}
  0.0432,                                 !- Conductivity {W/m-K}
  91,                                     !- Density {kg/m3}
  836.999999999999,                       !- Specific Heat {J/kg-K}
  0.9,                                    !- Thermal Absorptance
  0.5,                                    !- Solar Absorptance
  0.5;                                    !- Visible Absorptance

OS:Construction,
  {8dbc3681-65e1-4f5d-b4ee-36f604c6f651}, !- Handle
  ASHRAE 189.1-2009 ExtWall Mass ClimateZone 2, !- Name
  ,                                       !- Surface Rendering Name
  {548c444b-35af-402d-a57e-c23f00304398}, !- Layer 1
  {3e2aa5c6-83d1-4c1e-9cbb-bcbc6ae55362}, !- Layer 2
  {2e707827-efb1-4f42-bfa9-260fc9224ccf}, !- Layer 3
  {88edbaed-dec3-45fa-a50b-57ca37abff3b}; !- Layer 4

OS:StandardsInformation:Construction,
  {9e973e44-ab85-45b0-9e02-5097ac2ffead}, !- Handle
  {8dbc3681-65e1-4f5d-b4ee-36f604c6f651}, !- Construction Name
  ExteriorWall,                           !- Intended Surface Type
  Mass;                                   !- Standards Construction Type

OS:Material,
  {2e707827-efb1-4f42-bfa9-260fc9224ccf}, !- Handle
  Wall Insulation [35],                   !- Name
  MediumRough,                            !- Roughness
  0.0452,                                 !- Thickness {m}
  0.0432,                                 !- Conductivity {W/m-K}
  91,                                     !- Density {kg/m3}
  836.999999999999,                       !- Specific Heat {J/kg-K}
  0.9,                                    !- Thermal Absorptance
  0.5,                                    !- Solar Absorptance
  0.5;                                    !- Visible Absorptance

OS:Construction,
  {91471fec-c927-4c15-84e9-3d2a4b5a3cca}, !- Handle
  ASHRAE 189.1-2009 ExtWall Mass ClimateZone 3, !- Name
  ,                                       !- Surface Rendering Name
  {548c444b-35af-402d-a57e-c23f00304398}, !- Layer 1
  {3e2aa5c6-83d1-4c1e-9cbb-bcbc6ae55362}, !- Layer 2
  {e57a12c4-49fd-4bf9-b7b9-b0e9b07f6a3e}, !- Layer 3
  {88edbaed-dec3-45fa-a50b-57ca37abff3b}; !- Layer 4

OS:StandardsInformation:Construction,
  {043f09f2-5c5d-4ee3-b68f-9c9c6e59e3e5}, !- Handle
  {91471fec-c927-4c15-84e9-3d2a4b5a3cca}, !- Construction Name
  ExteriorWall,                           !- Intended Surface Type
  Mass;                                   !- Standards Construction Type

OS:Material,
  {e57a12c4-49fd-4bf9-b7b9-b0e9b07f6a3e}, !- Handle
  Wall Insulation [36],                   !- Name
  MediumRough,                            !- Roughness
  0.0565999999999999,                     !- Thickness {m}
  0.0432,                                 !- Conductivity {W/m-K}
  91,                                     !- Density {kg/m3}
  836.999999999999,                       !- Specific Heat {J/kg-K}
  0.9,                                    !- Thermal Absorptance
  0.5,                                    !- Solar Absorptance
  0.5;                                    !- Visible Absorptance

OS:Construction,
  {98db8e91-0fa1-484e-acdf-0cc64e1ed096}, !- Handle
  ASHRAE 189.1-2009 ExtWall Mass ClimateZone 4, !- Name
  ,                                       !- Surface Rendering Name
  {548c444b-35af-402d-a57e-c23f00304398}, !- Layer 1
  {3e2aa5c6-83d1-4c1e-9cbb-bcbc6ae55362}, !- Layer 2
  {977f5166-f2db-4417-9dad-368841c51e70}, !- Layer 3
  {88edbaed-dec3-45fa-a50b-57ca37abff3b}; !- Layer 4

OS:StandardsInformation:Construction,
  {799cef1b-748b-4906-b19a-8f5e68778a73}, !- Handle
  {98db8e91-0fa1-484e-acdf-0cc64e1ed096}, !- Construction Name
  ExteriorWall,                           !- Intended Surface Type
  Mass;                                   !- Standards Construction Type

OS:Material,
  {977f5166-f2db-4417-9dad-368841c51e70}, !- Handle
  Wall Insulation [37],                   !- Name
  MediumRough,                            !- Roughness
  0.0680999999999999,                     !- Thickness {m}
  0.0432,                                 !- Conductivity {W/m-K}
  91,                                     !- Density {kg/m3}
  836.999999999999,                       !- Specific Heat {J/kg-K}
  0.9,                                    !- Thermal Absorptance
  0.5,                                    !- Solar Absorptance
  0.5;                                    !- Visible Absorptance

OS:Construction,
  {3a616271-6624-4221-bac9-b6ee8e82f808}, !- Handle
  ASHRAE 189.1-2009 ExtWall Mass ClimateZone 5, !- Name
  ,                                       !- Surface Rendering Name
  {548c444b-35af-402d-a57e-c23f00304398}, !- Layer 1
  {3e2aa5c6-83d1-4c1e-9cbb-bcbc6ae55362}, !- Layer 2
  {aedaa0af-2aa5-4b49-8a7e-d0cb9604e05b}, !- Layer 3
  {88edbaed-dec3-45fa-a50b-57ca37abff3b}; !- Layer 4

OS:StandardsInformation:Construction,
  {98e2aa70-dae2-42a7-b991-e4d51b0c3d8f}, !- Handle
  {3a616271-6624-4221-bac9-b6ee8e82f808}, !- Construction Name
  ExteriorWall,                           !- Intended Surface Type
  Mass;                                   !- Standards Construction Type

OS:Material,
  {aedaa0af-2aa5-4b49-8a7e-d0cb9604e05b}, !- Handle
  Wall Insulation [40],                   !- Name
  MediumRough,                            !- Roughness
  0.0793999999999999,                     !- Thickness {m}
  0.0432,                                 !- Conductivity {W/m-K}
  91,                                     !- Density {kg/m3}
  836.999999999999,                       !- Specific Heat {J/kg-K}
  0.9,                                    !- Thermal Absorptance
  0.5,                                    !- Solar Absorptance
  0.5;                                    !- Visible Absorptance

OS:Construction,
  {ecc6c56a-7d29-4435-a3b3-fa9fb1a41454}, !- Handle
  ASHRAE 189.1-2009 ExtWall Mass ClimateZone 6, !- Name
  ,                                       !- Surface Rendering Name
  {548c444b-35af-402d-a57e-c23f00304398}, !- Layer 1
  {3e2aa5c6-83d1-4c1e-9cbb-bcbc6ae55362}, !- Layer 2
  {af4d7f68-c539-4aa8-a088-5a8f46512176}, !- Layer 3
  {88edbaed-dec3-45fa-a50b-57ca37abff3b}; !- Layer 4

OS:StandardsInformation:Construction,
  {8e9d2950-6f7d-4a67-b545-9b3ebaf57d82}, !- Handle
  {ecc6c56a-7d29-4435-a3b3-fa9fb1a41454}, !- Construction Name
  ExteriorWall,                           !- Intended Surface Type
  Mass;                                   !- Standards Construction Type

OS:Material,
  {af4d7f68-c539-4aa8-a088-5a8f46512176}, !- Handle
  Wall Insulation [42],                   !- Name
  MediumRough,                            !- Roughness
  0.0913999999999999,                     !- Thickness {m}
  0.0432,                                 !- Conductivity {W/m-K}
  91,                                     !- Density {kg/m3}
  836.999999999999,                       !- Specific Heat {J/kg-K}
  0.9,                                    !- Thermal Absorptance
  0.5,                                    !- Solar Absorptance
  0.5;                                    !- Visible Absorptance

OS:Construction,
  {45ff53a0-35d4-4ebd-a54a-a6b298c4320a}, !- Handle
  ASHRAE 189.1-2009 ExtWall Mass ClimateZone 7-8, !- Name
  ,                                       !- Surface Rendering Name
  {548c444b-35af-402d-a57e-c23f00304398}, !- Layer 1
  {3e2aa5c6-83d1-4c1e-9cbb-bcbc6ae55362}, !- Layer 2
  {39631260-ca41-4027-910f-9007931f27d4}, !- Layer 3
  {88edbaed-dec3-45fa-a50b-57ca37abff3b}; !- Layer 4

OS:StandardsInformation:Construction,
  {48b73487-cb6d-4def-a02c-91c45af69a46}, !- Handle
  {45ff53a0-35d4-4ebd-a54a-a6b298c4320a}, !- Construction Name
  ExteriorWall,                           !- Intended Surface Type
  Mass;                                   !- Standards Construction Type

OS:Material,
  {39631260-ca41-4027-910f-9007931f27d4}, !- Handle
  Wall Insulation [44],                   !- Name
  MediumRough,                            !- Roughness
  0.1104,                                 !- Thickness {m}
  0.0432,                                 !- Conductivity {W/m-K}
  91,                                     !- Density {kg/m3}
  836.999999999999,                       !- Specific Heat {J/kg-K}
  0.9,                                    !- Thermal Absorptance
  0.5,                                    !- Solar Absorptance
  0.5;                                    !- Visible Absorptance

OS:Construction,
  {141d2a87-2d09-4934-948f-ac48768b4b5f}, !- Handle
  ASHRAE 189.1-2009 ExtWall Mass ClimateZone alt-res 1, !- Name
  ,                                       !- Surface Rendering Name
  {548c444b-35af-402d-a57e-c23f00304398}, !- Layer 1
  {3e2aa5c6-83d1-4c1e-9cbb-bcbc6ae55362}, !- Layer 2
  {2e707827-efb1-4f42-bfa9-260fc9224ccf}, !- Layer 3
  {88edbaed-dec3-45fa-a50b-57ca37abff3b}; !- Layer 4

OS:StandardsInformation:Construction,
  {bc085414-9dc4-479e-bd67-9040e336ccab}, !- Handle
  {141d2a87-2d09-4934-948f-ac48768b4b5f}, !- Construction Name
  ExteriorWall,                           !- Intended Surface Type
  Mass;                                   !- Standards Construction Type

OS:Construction,
  {aeb982e0-d7bc-467b-accf-e12858a732a3}, !- Handle
  ASHRAE 189.1-2009 ExtWall Mass ClimateZone alt-res 2, !- Name
  ,                                       !- Surface Rendering Name
  {548c444b-35af-402d-a57e-c23f00304398}, !- Layer 1
  {3e2aa5c6-83d1-4c1e-9cbb-bcbc6ae55362}, !- Layer 2
  {e57a12c4-49fd-4bf9-b7b9-b0e9b07f6a3e}, !- Layer 3
  {88edbaed-dec3-45fa-a50b-57ca37abff3b}; !- Layer 4

OS:StandardsInformation:Construction,
  {2ca71a98-1c86-47be-97a4-d58f765e000b}, !- Handle
  {aeb982e0-d7bc-467b-accf-e12858a732a3}, !- Construction Name
  ExteriorWall,                           !- Intended Surface Type
  Mass;                                   !- Standards Construction Type

OS:Construction,
  {98c96965-ec13-4a09-a376-b9f7a90b75ad}, !- Handle
  ASHRAE 189.1-2009 ExtWall Mass ClimateZone alt-res 3, !- Name
  ,                                       !- Surface Rendering Name
  {548c444b-35af-402d-a57e-c23f00304398}, !- Layer 1
  {3e2aa5c6-83d1-4c1e-9cbb-bcbc6ae55362}, !- Layer 2
  {977f5166-f2db-4417-9dad-368841c51e70}, !- Layer 3
  {88edbaed-dec3-45fa-a50b-57ca37abff3b}; !- Layer 4

OS:StandardsInformation:Construction,
  {3fcf8541-bc88-4d1c-afd8-e40227f3a660}, !- Handle
  {98c96965-ec13-4a09-a376-b9f7a90b75ad}, !- Construction Name
  ExteriorWall,                           !- Intended Surface Type
  Mass;                                   !- Standards Construction Type

OS:Construction,
  {e6da0c36-474b-480b-aaf4-1be048944d4e}, !- Handle
  ASHRAE 189.1-2009 ExtWall Mass ClimateZone alt-res 4, !- Name
  ,                                       !- Surface Rendering Name
  {548c444b-35af-402d-a57e-c23f00304398}, !- Layer 1
  {3e2aa5c6-83d1-4c1e-9cbb-bcbc6ae55362}, !- Layer 2
  {aedaa0af-2aa5-4b49-8a7e-d0cb9604e05b}, !- Layer 3
  {88edbaed-dec3-45fa-a50b-57ca37abff3b}; !- Layer 4

OS:StandardsInformation:Construction,
  {4a93c132-7c4c-40df-8970-7206e5ca0956}, !- Handle
  {e6da0c36-474b-480b-aaf4-1be048944d4e}, !- Construction Name
  ExteriorWall,                           !- Intended Surface Type
  Mass;                                   !- Standards Construction Type

OS:Construction,
  {e2b75343-53f9-4bef-a7ac-7cca04f7b7d1}, !- Handle
  ASHRAE 189.1-2009 ExtWall Mass ClimateZone alt-res 5, !- Name
  ,                                       !- Surface Rendering Name
  {548c444b-35af-402d-a57e-c23f00304398}, !- Layer 1
  {3e2aa5c6-83d1-4c1e-9cbb-bcbc6ae55362}, !- Layer 2
  {af4d7f68-c539-4aa8-a088-5a8f46512176}, !- Layer 3
  {88edbaed-dec3-45fa-a50b-57ca37abff3b}; !- Layer 4

OS:StandardsInformation:Construction,
  {f17e6d78-2513-4930-9954-1cd55ad69d6a}, !- Handle
  {e2b75343-53f9-4bef-a7ac-7cca04f7b7d1}, !- Construction Name
  ExteriorWall,                           !- Intended Surface Type
  Mass;                                   !- Standards Construction Type

OS:Construction,
  {f08a9348-f5aa-4971-89d6-b53532d95085}, !- Handle
  ASHRAE 189.1-2009 ExtWall Mass ClimateZone alt-res 6, !- Name
  ,                                       !- Surface Rendering Name
  {548c444b-35af-402d-a57e-c23f00304398}, !- Layer 1
  {3e2aa5c6-83d1-4c1e-9cbb-bcbc6ae55362}, !- Layer 2
  {39631260-ca41-4027-910f-9007931f27d4}, !- Layer 3
  {88edbaed-dec3-45fa-a50b-57ca37abff3b}; !- Layer 4

OS:StandardsInformation:Construction,
  {a8f448f3-d22d-4771-989b-4cffe80a5f38}, !- Handle
  {f08a9348-f5aa-4971-89d6-b53532d95085}, !- Construction Name
  ExteriorWall,                           !- Intended Surface Type
  Mass;                                   !- Standards Construction Type

OS:Construction,
  {6297d2f4-10dc-45ee-9b77-053f886f17a8}, !- Handle
  ASHRAE 189.1-2009 ExtWall Mass ClimateZone alt-res 7, !- Name
  ,                                       !- Surface Rendering Name
  {548c444b-35af-402d-a57e-c23f00304398}, !- Layer 1
  {3e2aa5c6-83d1-4c1e-9cbb-bcbc6ae55362}, !- Layer 2
  {39631260-ca41-4027-910f-9007931f27d4}, !- Layer 3
  {88edbaed-dec3-45fa-a50b-57ca37abff3b}; !- Layer 4

OS:StandardsInformation:Construction,
  {0821e1b8-b1b6-455e-93a5-5a64a35f3cc9}, !- Handle
  {6297d2f4-10dc-45ee-9b77-053f886f17a8}, !- Construction Name
  ExteriorWall,                           !- Intended Surface Type
  Mass;                                   !- Standards Construction Type

OS:Construction,
  {17e446e1-037d-4cb8-866c-84d072bcd0e8}, !- Handle
  ASHRAE 189.1-2009 ExtWall Mass ClimateZone alt-res 8, !- Name