
OS:Version,
  {fbf0dd74-d3c6-455d-a28f-f944a6c7ade1}, !- Handle
  1.3.3;                                  !- Version Identifier

OS:Construction,
  {c6a6d260-4c2d-4b4a-a53d-44607cbaea60}, !- Handle
  ASHRAE 189.1-2009 AtticFloor ClimateZone 1-8, !- Name
  ,                                       !- Surface Rendering Name
  {f6c36717-8002-409a-82e8-4dcbe102d974}, !- Layer 1
  {0a313e9a-f68a-4f72-8c46-9cac5a742de6}, !- Layer 2
  {f6c36717-8002-409a-82e8-4dcbe102d974}; !- Layer 3

OS:StandardsInformation:Construction,
  {21ee75e5-2f71-4c2d-9487-15275dd5986a}, !- Handle
  {c6a6d260-4c2d-4b4a-a53d-44607cbaea60}, !- Construction Name
  AtticFloor,                             !- Intended Surface Type
  WoodFramed;                             !- Standards Construction Type

OS:Material,
  {f6c36717-8002-409a-82e8-4dcbe102d974}, !- Handle
  1/2IN Gypsum,                           !- Name
  Smooth,                                 !- Roughness
  0.0127,                                 !- Thickness {m}
  0.16,                                   !- Conductivity {W/m-K}
  784.9,                                  !- Density {kg/m3}
  830.000000000001,                       !- Specific Heat {J/kg-K}
  0.9,                                    !- Thermal Absorptance
  0.92,                                   !- Solar Absorptance
  0.92;                                   !- Visible Absorptance

OS:Material,
  {0a313e9a-f68a-4f72-8c46-9cac5a742de6}, !- Handle
  AtticFloor Insulation,                  !- Name
  MediumRough,                            !- Roughness
  0.2379,                                 !- Thickness {m}
  0.049,                                  !- Conductivity {W/m-K}
  265,                                    !- Density {kg/m3}
  836.800000000001,                       !- Specific Heat {J/kg-K}
  0.9,                                    !- Thermal Absorptance
  0.7,                                    !- Solar Absorptance
  0.7;                                    !- Visible Absorptance

OS:Construction,
  {186dcc09-0900-468a-9395-caff23378c9c}, !- Handle
  ASHRAE 189.1-2009 ExtRoof IEAD ClimateZone 1, !- Name
  ,                                       !- Surface Rendering Name
  {da20cd74-d556-4dce-86ac-988d92b0bc76}, !- Layer 1
  {a3503aaf-b19f-4c6a-87a1-bb7cf2a41d82}, !- Layer 2
  {a55426c4-7eb0-4af5-9c28-02939544e982}; !- Layer 3

OS:StandardsInformation:Construction,
  {23b7f89b-679c-4819-b7e0-bf10437d4ef9}, !- Handle
  {186dcc09-0900-468a-9395-caff23378c9c}, !- Construction Name
  ExteriorRoof,                           !- Intended Surface Type
  IEAD;                                   !- Standards Construction Type

OS:Material,
  {da20cd74-d556-4dce-86ac-988d92b0bc76}, !- Handle
  Roof Membrane,                          !- Name
  VeryRough,                              !- Roughness
  0.0095,                                 !- Thickness {m}
  0.16,                                   !- Conductivity {W/m-K}
  1121.29,                                !- Density {kg/m3}
  1460,                                   !- Specific Heat {J/kg-K}
  0.9,                                    !- Thermal Absorptance
  0.7,                                    !- Solar Absorptance
  0.7;                                    !- Visible Absorptance

OS:Material,
  {a3503aaf-b19f-4c6a-87a1-bb7cf2a41d82}, !- Handle
  Roof Insulation [18],                   !- Name
  MediumRough,                            !- Roughness
  0.1693,                                 !- Thickness {m}
  0.049,                                  !- Conductivity {W/m-K}
  265,                                    !- Density {kg/m3}
  836.800000000001,                       !- Specific Heat {J/kg-K}
  0.9,                                    !- Thermal Absorptance
  0.7,                                    !- Solar Absorptance
  0.7;                                    !- Visible Absorptance

OS:Material,
  {a55426c4-7eb0-4af5-9c28-02939544e982}, !- Handle
  Metal Decking,                          !- Name
  MediumSmooth,                           !- Roughness
  0.0015,                                 !- Thickness {m}
  45.006,                                 !- Conductivity {W/m-K}
  7680,                                   !- Density {kg/m3}
  418.4,                                  !- Specific Heat {J/kg-K}
  0.9,                                    !- Thermal Absorptance
  0.7,                                    !- Solar Absorptance
  0.3;                                    !- Visible Absorptance

OS:Construction,
  {d85ac139-b01e-404d-aa52-d4783a51e9af}, !- Handle
  ASHRAE 189.1-2009 ExtRoof IEAD ClimateZone 2-5, !- Name
  ,                                       !- Surface Rendering Name
  {da20cd74-d556-4dce-86ac-988d92b0bc76}, !- Layer 1
  {ad259819-331f-4ac7-b644-17104b9bfcf5}, !- Layer 2
  {a55426c4-7eb0-4af5-9c28-02939544e982}; !- Layer 3

OS:StandardsInformation:Construction,
  {48087d06-723e-4485-9a91-35bb6a34c994}, !- Handle
  {d85ac139-b01e-404d-aa52-d4783a51e9af}, !- Construction Name
  ExteriorRoof,                           !- Intended Surface Type
  IEAD;                                   !- Standards Construction Type

OS:Material,
  {ad259819-331f-4ac7-b644-17104b9bfcf5}, !- Handle
  Roof Insulation [21],                   !- Name
  MediumRough,                            !- Roughness
  0.2105,                                 !- Thickness {m}
  0.049,                                  !- Conductivity {W/m-K}
  265,                                    !- Density {kg/m3}
  836.800000000001,                       !- Specific Heat {J/kg-K}
  0.9,                                    !- Thermal Absorptance
  0.7,                                    !- Solar Absorptance
  0.7;                                    !- Visible Absorptance

OS:Construction,
  {a291b3de-0135-4a8d-9b3a-1be2844ad8c5}, !- Handle
  ASHRAE 189.1-2009 ExtRoof IEAD ClimateZone 6, !- Name
  ,                                       !- Surface Rendering Name
  {da20cd74-d556-4dce-86ac-988d92b0bc76}, !- Layer 1
  {17945f74-0ebc-4744-82b1-8ea8d2c159f9}, !- Layer 2
  {a55426c4-7eb0-4af5-9c28-02939544e982}; !- Layer 3

OS:StandardsInformation:Construction,
  {985e2182-22dc-4bc0-a001-36883b0e89f3}, !- Handle
  {a291b3de-0135-4a8d-9b3a-1be2844ad8c5}, !- Construction Name
  ExteriorRoof,                           !- Intended Surface Type
  IEAD;                                   !- Standards Construction Type

OS:Material,
  {17945f74-0ebc-4744-82b1-8ea8d2c159f9}, !- Handle
  Roof Insulation [24],                   !- Name
  MediumRough,                            !- Roughness
  0.260100000000001,                      !- Thickness {m}
  0.049,                                  !- Conductivity {W/m-K}
  265,                                    !- Density {kg/m3}
  836.800000000001,                       !- Specific Heat {J/kg-K}
  0.9,                                    !- Thermal Absorptance
  0.7,                                    !- Solar Absorptance
  0.7;                                    !- Visible Absorptance

OS:Construction,
  {8860fa76-1dd6-476b-be33-948f80c9b720}, !- Handle
  ASHRAE 189.1-2009 ExtRoof IEAD ClimateZone 7-8, !- Name
  ,                                       !- Surface Rendering Name
  {da20cd74-d556-4dce-86ac-988d92b0bc76}, !- Layer 1
  {db63d4be-28e0-4f19-a1a4-0a5f08ff8484}, !- Layer 2
  {a55426c4-7eb0-4af5-9c28-02939544e982}; !- Layer 3

OS:StandardsInformation:Construction,
  {61f2f648-93df-401a-a0bc-d6623b88a25b}, !- Handle
  {8860fa76-1dd6-476b-be33-948f80c9b720}, !- Construction Name
  ExteriorRoof,                           !- Intended Surface Type
  IEAD;                                   !- Standards Construction Type

OS:Material,
  {db63d4be-28e0-4f19-a1a4-0a5f08ff8484}, !- Handle
  Roof Insulation [26],                   !- Name
  MediumRough,                            !- Roughness
  0.2941,                                 !- Thickness {m}
  0.049,                                  !- Conductivity {W/m-K}
  265,                                    !- Density {kg/m3}
  836.800000000001,                       !- Specific Heat {J/kg-K}
  0.9,                                    !- Thermal Absorptance
  0.7,                                    !- Solar Absorptance
  0.7;                                    !- Visible Absorptance

OS:Construction,
  {34507326-49ca-4688-b3fe-f141eae89dbf}, !- Handle
  ASHRAE 189.1-2009 ExtRoof Metal ClimateZone 1, !- Name
  ,                                       !- Surface Rendering Name
  {9d36dafa-c9c2-4cd1-b6f1-ae022f30c207}, !- Layer 1
  {9f9d0b42-2ad2-405a-8c2d-14238b62818c}; !- Layer 2

OS:StandardsInformation:Construction,
  {84ad353a-2e55-4bd7-962b-60341975c92c}, !- Handle
  {34507326-49ca-4688-b3fe-f141eae89dbf}, !- Construction Name
  ExteriorRoof,                           !- Intended Surface Type
  Metal;                                  !- Standards Construction Type

OS:Material,
  {9d36dafa-c9c2-4cd1-b6f1-ae022f30c207}, !- Handle
  Metal Roofing,                          !- Name
  MediumSmooth,                           !- Roughness
  0.0015,                                 !- Thickness {m}
  45.006,                                 !- Conductivity {W/m-K}
  7680,                                   !- Density {kg/m3}
  418.4,                                  !- Specific Heat {J/kg-K}
  0.9,                                    !- Thermal Absorptance
  0.3,                                    !- Solar Absorptance
  0.3;                                    !- Visible Absorptance

OS:Material,
  {9f9d0b42-2ad2-405a-8c2d-14238b62818c}, !- Handle
  Roof Insulation [19],                   !- Name
  MediumRough,                            !- Roughness
  0.1868,                                 !- Thickness {m}
  0.049,                                  !- Conductivity {W/m-K}
  265,                                    !- Density {kg/m3}
  836.800000000001,                       !- Specific Heat {J/kg-K}
  0.9,                                    !- Thermal Absorptance
  0.7,                                    !- Solar Absorptance
  0.7;                                    !- Visible Absorptance

OS:Construction,
  {176eef07-e33f-4aaf-96ad-3ff375444187}, !- Handle
  ASHRAE 189.1-2009 ExtRoof Metal ClimateZone 2-5, !- Name
  ,                                       !- Surface Rendering Name
  {9d36dafa-c9c2-4cd1-b6f1-ae022f30c207}, !- Layer 1
  {29976c26-2281-4cfe-ba6a-89e27ae94233}; !- Layer 2

OS:StandardsInformation:Construction,
  {594e150d-0abb-426d-8888-763ff7f50797}, !- Handle
  {176eef07-e33f-4aaf-96ad-3ff375444187}, !- Construction Name
  ExteriorRoof,                           !- Intended Surface Type
  Metal;                                  !- Standards Construction Type

OS:Material,
  {29976c26-2281-4cfe-ba6a-89e27ae94233}, !- Handle
  Roof Insulation [22],                   !- Name
  MediumRough,                            !- Roughness
  0.2358,                                 !- Thickness {m}
  0.049,                                  !- Conductivity {W/m-K}
  265,                                    !- Density {kg/m3}
  836.800000000001,                       !- Specific Heat {J/kg-K}
  0.9,                                    !- Thermal Absorptance
  0.7,                                    !- Solar Absorptance
  0.7;                                    !- Visible Absorptance

OS:Construction,
  {69751216-03cf-4e89-b9fb-c7265a912414}, !- Handle
  ASHRAE 189.1-2009 ExtRoof Metal ClimateZone 6, !- Name
  ,                                       !- Surface Rendering Name
  {9d36dafa-c9c2-4cd1-b6f1-ae022f30c207}, !- Layer 1
  {e194c59f-4415-4d9a-b9a6-33c5d986100c}; !- Layer 2

OS:StandardsInformation:Construction,
  {b9f32344-d1d6-4d72-8788-b45c17db49d2}, !- Handle
  {69751216-03cf-4e89-b9fb-c7265a912414}, !- Construction Name
  ExteriorRoof,                           !- Intended Surface Type
  Metal;                                  !- Standards Construction Type

OS:Material,
  {e194c59f-4415-4d9a-b9a6-33c5d986100c}, !- Handle
  Roof Insulation [25],                   !- Name
  MediumRough,                            !- Roughness
  0.263,                                  !- Thickness {m}
  0.049,                                  !- Conductivity {W/m-K}
  265,                                    !- Density {kg/m3}
  836.800000000001,                       !- Specific Heat {J/kg-K}
  0.9,                                    !- Thermal Absorptance
  0.7,                                    !- Solar Absorptance
  0.7;                                    !- Visible Absorptance

OS:Construction,
  {1f9408ab-3f12-4dd4-9c3c-c90923cdf007}, !- Handle
  ASHRAE 189.1-2009 ExtRoof Metal ClimateZone 7-8, !- Name
  ,                                       !- Surface Rendering Name
  {9d36dafa-c9c2-4cd1-b6f1-ae022f30c207}, !- Layer 1
  {18c55e09-ad6f-4ed9-8237-6d4ba993a28c}; !- Layer 2

OS:StandardsInformation:Construction,
  {a9a8009b-91ac-464e-baf0-e178b786d399}, !- Handle
  {1f9408ab-3f12-4dd4-9c3c-c90923cdf007}, !- Construction Name
  ExteriorRoof,                           !- Intended Surface Type
  Metal;                                  !- Standards Construction Type

OS:Material,
  {18c55e09-ad6f-4ed9-8237-6d4ba993a28c}, !- Handle
  Roof Insulation [27],                   !- Name
  MediumRough,                            !- Roughness
  0.297000000000001,                      !- Thickness {m}
  0.049,                                  !- Conductivity {W/m-K}
  265,                                    !- Density {kg/m3}
  836.800000000001,                       !- Specific Heat {J/kg-K}
  0.9,                                    !- Thermal Absorptance
  0.7,                                    !- Solar Absorptance
  0.7;                                    !- Visible Absorptance

OS:Construction,
  {4eb06400-f451-410f-a4ef-53c9e57a35de}, !- Handle
  ASHRAE 189.1-2009 ExtWall Mass ClimateZone 1, !- Name
  ,                                       !- Surface Rendering Name
  {acb19c0b-e856-4f01-b42d-371edaa5f411}, !- Layer 1
  {33453df7-3e22-4174-84bf-af187efe5cc3}, !- Layer 2
  {b4e3b41e-6518-4c2a-bbe2-4271872c3394}, !- Layer 3
  {f6c36717-8002-409a-82e8-4dcbe102d974}; !- Layer 4

OS:StandardsInformation:Construction,
  {a8add010-6ba0-4eae-bf23-783961d058b5}, !- Handle
  {4eb06400-f451-410f-a4ef-53c9e57a35de}, !- Construction Name
  ExteriorWall,                           !- Intended Surface Type
  Mass;                                   !- Standards Construction Type

OS:Material,
  {acb19c0b-e856-4f01-b42d-371edaa5f411}, !- Handle
  1IN Stucco,                             !- Name
  Smooth,                                 !- Roughness
  0.0253,                                 !- Thickness {m}
  0.691799999999999,                      !- Conductivity {W/m-K}
  1858,                                   !- Density {kg/m3}
  836.999999999999,                       !- Specific Heat {J/kg-K}
  0.9,                                    !- Thermal Absorptance
  0.92,                                   !- Solar Absorptance
  0.92;                                   !- Visible Absorptance

OS:Material,
  {33453df7-3e22-4174-84bf-af187efe5cc3}, !- Handle
  8IN Concrete HW,                        !- Name
  MediumRough,                            !- Roughness
  0.2033,                                 !- Thickness {m}
  1.72959999999999,                       !- Conductivity {W/m-K}
  2242.99999999999,                       !- Density {kg/m3}
  836.999999999999,                       !- Specific Heat {J/kg-K}
  0.9,                                    !- Thermal Absorptance
  0.65,                                   !- Solar Absorptance
  0.65;                                   !- Visible Absorptance

OS:Material,
  {b4e3b41e-6518-4c2a-bbe2-4271872c3394}, !- Handle
  Wall Insulation [31],                   !- Name
  MediumRough,                            !- Roughness
  0.0337000000000001,                     !- Thickness {m}
  0.0432,                                 !- Conductivity {W/m-K}
  91,                                     !- Density {kg/m3}
  836.999999999999,                       !- Specific Heat {J/kg-K}
  0.9,                                    !- Thermal Absorptance
  0.5,                                    !- Solar Absorptance
  0.5;                                    !- Visible Absorptance

OS:Construction,
  {a550aa69-07c8-4b75-840f-a1a9ac073475}, !- Handle
  ASHRAE 189.1-2009 ExtWall Mass ClimateZone 2, !- Name
  ,                                       !- Surface Rendering Name
  {acb19c0b-e856-4f01-b42d-371edaa5f411}, !- Layer 1
  {33453df7-3e22-4174-84bf-af187efe5cc3}, !- Layer 2
  {b11197d1-a107-4dc4-993c-c047f77cbf65}, !- Layer 3
  {f6c36717-8002-409a-82e8-4dcbe102d974}; !- Layer 4

OS:StandardsInformation:Construction,
  {38cdb5df-0baf-4246-a127-a05ca194fd36}, !- Handle
  {a550aa69-07c8-4b75-840f-a1a9ac073475}, !- Construction Name
  ExteriorWall,                           !- Intended Surface Type
  Mass;                                   !- Standards Construction Type

OS:Material,
  {b11197d1-a107-4dc4-993c-c047f77cbf65}, !- Handle
  Wall Insulation [35],                   !- Name
  MediumRough,                            !- Roughness
  0.0452,                                 !- Thickness {m}
  0.0432,                                 !- Conductivity {W/m-K}
  91,                                     !- Density {kg/m3}
  836.999999999999,                       !- Specific Heat {J/kg-K}
  0.9,                                    !- Thermal Absorptance
  0.5,                                    !- Solar Absorptance
  0.5;                                    !- Visible Absorptance

OS:Construction,
  {568dc4a5-0e44-4036-b4a4-d1565fe17d6b}, !- Handle
  ASHRAE 189.1-2009 ExtWall Mass ClimateZone 3, !- Name
  ,                                       !- Surface Rendering Name
  {acb19c0b-e856-4f01-b42d-371edaa5f411}, !- Layer 1
  {33453df7-3e22-4174-84bf-af187efe5cc3}, !- Layer 2
  {fe1451c2-5ab1-41a1-9882-9cbd3d377d62}, !- Layer 3
  {f6c36717-8002-409a-82e8-4dcbe102d974}; !- Layer 4

OS:StandardsInformation:Construction,
  {68b62050-9976-40f1-9d56-4a46bdf4f6d2}, !- Handle
  {568dc4a5-0e44-4036-b4a4-d1565fe17d6b}, !- Construction Name
  ExteriorWall,                           !- Intended Surface Type
  Mass;                                   !- Standards Construction Type

OS:Material,
  {fe1451c2-5ab1-41a1-9882-9cbd3d377d62}, !- Handle
  Wall Insulation [36],                   !- Name
  MediumRough,                            !- Roughness
  0.0565999999999999,                     !- Thickness {m}
  0.0432,                                 !- Conductivity {W/m-K}
  91,                                     !- Density {kg/m3}
  836.999999999999,                       !- Specific Heat {J/kg-K}
  0.9,                                    !- Thermal Absorptance
  0.5,                                    !- Solar Absorptance
  0.5;                                    !- Visible Absorptance

OS:Construction,
  {495186a1-7e78-4775-9b6d-3fa1068d9e29}, !- Handle
  ASHRAE 189.1-2009 ExtWall Mass ClimateZone 4, !- Name
  ,                                       !- Surface Rendering Name
  {acb19c0b-e856-4f01-b42d-371edaa5f411}, !- Layer 1
  {33453df7-3e22-4174-84bf-af187efe5cc3}, !- Layer 2
  {866b0361-8096-4086-ad91-4431d775b1b0}, !- Layer 3
  {f6c36717-8002-409a-82e8-4dcbe102d974}; !- Layer 4

OS:StandardsInformation:Construction,
  {34d0614c-6936-437f-aa16-8e60b99c91fe}, !- Handle
  {495186a1-7e78-4775-9b6d-3fa1068d9e29}, !- Construction Name
  ExteriorWall,                           !- Intended Surface Type
  Mass;                                   !- Standards Construction Type

OS:Material,
  {866b0361-8096-4086-ad91-4431d775b1b0}, !- Handle
  Wall Insulation [37],                   !- Name
  MediumRough,                            !- Roughness
  0.0680999999999999,                     !- Thickness {m}
  0.0432,                                 !- Conductivity {W/m-K}
  91,                                     !- Density {kg/m3}
  836.999999999999,                       !- Specific Heat {J/kg-K}
  0.9,                                    !- Thermal Absorptance
  0.5,                                    !- Solar Absorptance
  0.5;                                    !- Visible Absorptance

OS:Construction,
  {00bdf8ff-6ab6-4c17-994b-e0eb237c2e48}, !- Handle
  ASHRAE 189.1-2009 ExtWall Mass ClimateZone 5, !- Name
  ,                                       !- Surface Rendering Name
  {acb19c0b-e856-4f01-b42d-371edaa5f411}, !- Layer 1
  {33453df7-3e22-4174-84bf-af187efe5cc3}, !- Layer 2
  {e0a4a030-0819-4fae-9367-42b863e98808}, !- Layer 3
  {f6c36717-8002-409a-82e8-4dcbe102d974}; !- Layer 4

OS:StandardsInformation:Construction,
  {08c6a49c-67d2-4ad4-bbc8-89831a738621}, !- Handle
  {00bdf8ff-6ab6-4c17-994b-e0eb237c2e48}, !- Construction Name
  ExteriorWall,                           !- Intended Surface Type
  Mass;                                   !- Standards Construction Type

OS:Material,
  {e0a4a030-0819-4fae-9367-42b863e98808}, !- Handle
  Wall Insulation [40],                   !- Name
  MediumRough,                            !- Roughness
  0.0793999999999999,                     !- Thickness {m}
  0.0432,                                 !- Conductivity {W/m-K}
  91,                                     !- Density {kg/m3}
  836.999999999999,                       !- Specific Heat {J/kg-K}
  0.9,                                    !- Thermal Absorptance
  0.5,                                    !- Solar Absorptance
  0.5;                                    !- Visible Absorptance

OS:Construction,
  {992b1b09-a32a-4a02-9b19-83df5efb91f4}, !- Handle
  ASHRAE 189.1-2009 ExtWall Mass ClimateZone 6, !- Name
  ,                                       !- Surface Rendering Name
  {acb19c0b-e856-4f01-b42d-371edaa5f411}, !- Layer 1
  {33453df7-3e22-4174-84bf-af187efe5cc3}, !- Layer 2
  {d31099d6-d6dd-42c6-95fe-ba5e2a73dddc}, !- Layer 3
  {f6c36717-8002-409a-82e8-4dcbe102d974}; !- Layer 4

OS:StandardsInformation:Construction,
  {b638575c-8dbc-4d24-ac6a-d3a0eab144de}, !- Handle
  {992b1b09-a32a-4a02-9b19-83df5efb91f4}, !- Construction Name
  ExteriorWall,                           !- Intended Surface Type
  Mass;                                   !- Standards Construction Type

OS:Material,
  {d31099d6-d6dd-42c6-95fe-ba5e2a73dddc}, !- Handle
  Wall Insulation [42],                   !- Name
  MediumRough,                            !- Roughness
  0.0913999999999999,                     !- Thickness {m}
  0.0432,                                 !- Conductivity {W/m-K}
  91,                                     !- Density {kg/m3}
  836.999999999999,                       !- Specific Heat {J/kg-K}
  0.9,                                    !- Thermal Absorptance
  0.5,                                    !- Solar Absorptance
  0.5;                                    !- Visible Absorptance

OS:Construction,
  {58c947a3-2c7e-4dd8-bc04-e66287290c38}, !- Handle
  ASHRAE 189.1-2009 ExtWall Mass ClimateZone 7-8, !- Name
  ,                                       !- Surface Rendering Name
  {acb19c0b-e856-4f01-b42d-371edaa5f411}, !- Layer 1
  {33453df7-3e22-4174-84bf-af187efe5cc3}, !- Layer 2
  {75bcc306-7b93-4cab-857f-2e97129487be}, !- Layer 3
  {f6c36717-8002-409a-82e8-4dcbe102d974}; !- Layer 4

OS:StandardsInformation:Construction,
  {f42b26be-4b6f-4bf8-bc04-e3ebe7d798f0}, !- Handle
  {58c947a3-2c7e-4dd8-bc04-e66287290c38}, !- Construction Name
  ExteriorWall,                           !- Intended Surface Type
  Mass;                                   !- Standards Construction Type

OS:Material,
  {75bcc306-7b93-4cab-857f-2e97129487be}, !- Handle
  Wall Insulation [44],                   !- Name
  MediumRough,                            !- Roughness
  0.1104,                                 !- Thickness {m}
  0.0432,                                 !- Conductivity {W/m-K}
  91,                                     !- Density {kg/m3}
  836.999999999999,                       !- Specific Heat {J/kg-K}
  0.9,                                    !- Thermal Absorptance
  0.5,                                    !- Solar Absorptance
  0.5;                                    !- Visible Absorptance

OS:Construction,
  {9d6bf478-b5fe-45ce-8574-51a0fb7ebf59}, !- Handle
  ASHRAE 189.1-2009 ExtWall Mass ClimateZone alt-res 1, !- Name
  ,                                       !- Surface Rendering Name
  {acb19c0b-e856-4f01-b42d-371edaa5f411}, !- Layer 1
  {33453df7-3e22-4174-84bf-af187efe5cc3}, !- Layer 2
  {b11197d1-a107-4dc4-993c-c047f77cbf65}, !- Layer 3
  {f6c36717-8002-409a-82e8-4dcbe102d974}; !- Layer 4

OS:StandardsInformation:Construction,
  {2545b525-0811-4c1f-bb44-90269ee6b3cc}, !- Handle
  {9d6bf478-b5fe-45ce-8574-51a0fb7ebf59}, !- Construction Name
  ExteriorWall,                           !- Intended Surface Type
  Mass;                                   !- Standards Construction Type

OS:Construction,
  {35e91079-cd48-4b70-8233-36235fca36f3}, !- Handle
  ASHRAE 189.1-2009 ExtWall Mass ClimateZone alt-res 2, !- Name
  ,                                       !- Surface Rendering Name
  {acb19c0b-e856-4f01-b42d-371edaa5f411}, !- Layer 1
  {33453df7-3e22-4174-84bf-af187efe5cc3}, !- Layer 2
  {fe1451c2-5ab1-41a1-9882-9cbd3d377d62}, !- Layer 3
  {f6c36717-8002-409a-82e8-4dcbe102d974}; !- Layer 4

OS:StandardsInformation:Construction,
  {bb325d8f-2d24-4ac8-964e-d05c1113e03a}, !- Handle
  {35e91079-cd48-4b70-8233-36235fca36f3}, !- Construction Name
  ExteriorWall,                           !- Intended Surface Type
  Mass;                                   !- Standards Construction Type

OS:Construction,
  {2b56d70a-4184-4c46-8e05-fa2419aa8170}, !- Handle
  ASHRAE 189.1-2009 ExtWall Mass ClimateZone alt-res 3, !- Name
  ,                                       !- Surface Rendering Name
  {acb19c0b-e856-4f01-b42d-371edaa5f411}, !- Layer 1
  {33453df7-3e22-4174-84bf-af187efe5cc3}, !- Layer 2
  {866b0361-8096-4086-ad91-4431d775b1b0}, !- Layer 3
  {f6c36717-8002-409a-82e8-4dcbe102d974}; !- Layer 4

OS:StandardsInformation:Construction,
  {b3d68d11-b5c1-405a-91c9-d06d6b27dcd7}, !- Handle
  {2b56d70a-4184-4c46-8e05-fa2419aa8170}, !- Construction Name
  ExteriorWall,                           !- Intended Surface Type
  Mass;                                   !- Standards Construction Type

OS:Construction,
  {4086435e-e613-4c26-9e49-fcf9184dcbb2}, !- Handle
  ASHRAE 189.1-2009 ExtWall Mass ClimateZone alt-res 4, !- Name
  ,                                       !- Surface Rendering Name
  {acb19c0b-e856-4f01-b42d-371edaa5f411}, !- Layer 1
  {33453df7-3e22-4174-84bf-af187efe5cc3}, !- Layer 2
  {e0a4a030-0819-4fae-9367-42b863e98808}, !- Layer 3
  {f6c36717-8002-409a-82e8-4dcbe102d974}; !- Layer 4

OS:StandardsInformation:Construction,
  {9f80b183-6c33-4470-8f4a-b1e11aa3b3e4}, !- Handle
  {4086435e-e613-4c26-9e49-fcf9184dcbb2}, !- Construction Name
  ExteriorWall,                           !- Intended Surface Type
  Mass;                                   !- Standards Construction Type

OS:Construction,
  {6b211247-5b1c-4ac5-809c-7a177299d397}, !- Handle
  ASHRAE 189.1-2009 ExtWall Mass ClimateZone alt-res 5, !- Name
  ,                                       !- Surface Rendering Name
  {acb19c0b-e856-4f01-b42d-371edaa5f411}, !- Layer 1
  {33453df7-3e22-4174-84bf-af187efe5cc3}, !- Layer 2
  {d31099d6-d6dd-42c6-95fe-ba5e2a73dddc}, !- Layer 3
  {f6c36717-8002-409a-82e8-4dcbe102d974}; !- Layer 4

OS:StandardsInformation:Construction,
  {65ed266e-bd55-45b4-9e84-eb1557957645}, !- Handle
  {6b211247-5b1c-4ac5-809c-7a177299d397}, !- Construction Name
  ExteriorWall,                           !- Intended Surface Type
  Mass;                                   !- Standards Construction Type

OS:Construction,
  {4e612245-43a2-4177-88a9-577513a0e578}, !- Handle
  ASHRAE 189.1-2009 ExtWall Mass ClimateZone alt-res 6, !- Name
  ,                                       !- Surface Rendering Name
  {acb19c0b-e856-4f01-b42d-371edaa5f411}, !- Layer 1
  {33453df7-3e22-4174-84bf-af187efe5cc3}, !- Layer 2
  {75bcc306-7b93-4cab-857f-2e97129487be}, !- Layer 3
  {f6c36717-8002-409a-82e8-4dcbe102d974}; !- Layer 4

OS:StandardsInformation:Construction,
  {0f07c4e3-3f48-4f73-b060-82c6fb1f4809}, !- Handle
  {4e612245-43a2-4177-88a9-577513a0e578}, !- Construction Name
  ExteriorWall,                           !- Intended Surface Type
  Mass;                                   !- Standards Construction Type

OS:Construction,
  {ce11be43-898c-4c95-a39a-a272281b5eeb}, !- Handle
  ASHRAE 189.1-2009 ExtWall Mass ClimateZone alt-res 7, !- Name
  ,                                       !- Surface Rendering Name
  {acb19c0b-e856-4f01-b42d-371edaa5f411}, !- Layer 1
  {33453df7-3e22-4174-84bf-af187efe5cc3}, !- Layer 2
  {75bcc306-7b93-4cab-857f-2e97129487be}, !- Layer 3
  {f6c36717-8002-409a-82e8-4dcbe102d974}; !- Layer 4

OS:StandardsInformation:Construction,
  {94a7fee9-609b-4d80-aceb-e7833e92d304}, !- Handle
  {ce11be43-898c-4c95-a39a-a272281b5eeb}, !- Construction Name
  ExteriorWall,                           !- Intended Surface Type
  Mass;                                   !- Standards Construction Type

OS:Construction,
  {9ac20d10-3330-4b88-99c8-3411ecc79c73}, !- Handle
  ASHRAE 189.1-2009 ExtWall Mass ClimateZone alt-res 8, !- Name