
OS:Version,
  {a22338e4-6389-454f-923e-a5392a36eeda}, !- Handle
  1.4.0;                                  !- Version Identifier

OS:Construction,
  {fac547b3-2365-4d1b-ab41-583db80c6641}, !- Handle
  ASHRAE 189.1-2009 AtticFloor ClimateZone 1-8, !- Name
  ,                                       !- Surface Rendering Name
  {3311b2d7-962b-43e0-8daa-568401383aeb}, !- Layer 1
  {f6fe5cbb-1fd6-4bf6-81d7-1a58aeabc224}, !- Layer 2
  {3311b2d7-962b-43e0-8daa-568401383aeb}; !- Layer 3

OS:StandardsInformation:Construction,
  {28d31042-fa81-4969-879c-3d3c0ae839ca}, !- Handle
  {fac547b3-2365-4d1b-ab41-583db80c6641}, !- Construction Name
  AtticFloor,                             !- Intended Surface Type
  WoodFramed;                             !- Standards Construction Type

OS:Material,
  {3311b2d7-962b-43e0-8daa-568401383aeb}, !- Handle
  1/2IN Gypsum,                           !- Name
  Smooth,                                 !- Roughness
  0.0127,                                 !- Thickness {m}
  0.16,                                   !- Conductivity {W/m-K}
  784.9,                                  !- Density {kg/m3}
  830.000000000001,                       !- Specific Heat {J/kg-K}
  0.9,                                    !- Thermal Absorptance
  0.4,                                    !- Solar Absorptance
  0.4;                                    !- Visible Absorptance

OS:Material,
  {f6fe5cbb-1fd6-4bf6-81d7-1a58aeabc224}, !- Handle
  AtticFloor Insulation,                  !- Name
  MediumRough,                            !- Roughness
  0.2379,                                 !- Thickness {m}
  0.049,                                  !- Conductivity {W/m-K}
  265,                                    !- Density {kg/m3}
  836.800000000001,                       !- Specific Heat {J/kg-K}
  0.9,                                    !- Thermal Absorptance
  0.7,                                    !- Solar Absorptance
  0.7;                                    !- Visible Absorptance

OS:Construction,
  {8de4847a-6472-4fdb-9284-818f3bf69cc5}, !- Handle
  ASHRAE 189.1-2009 ExtRoof IEAD ClimateZone 1, !- Name
  ,                                       !- Surface Rendering Name
  {9df9c3a2-9878-4496-a084-f62ac35c76b9}, !- Layer 1
  {349797f1-03f9-4689-860a-77752f078dee}, !- Layer 2
  {ab5006d9-75bc-41b3-9d1c-25037491acb3}; !- Layer 3

OS:StandardsInformation:Construction,
  {f28b7572-18ff-4430-98c5-2d039363fdeb}, !- Handle
  {8de4847a-6472-4fdb-9284-818f3bf69cc5}, !- Construction Name
  ExteriorRoof,                           !- Intended Surface Type
  IEAD;                                   !- Standards Construction Type

OS:Material,
  {9df9c3a2-9878-4496-a084-f62ac35c76b9}, !- Handle
  Roof Membrane,                          !- Name
  VeryRough,                              !- Roughness
  0.0095,                                 !- Thickness {m}
  0.16,                                   !- Conductivity {W/m-K}
  1121.29,                                !- Density {kg/m3}
  1460,                                   !- Specific Heat {J/kg-K}
  0.9,                                    !- Thermal Absorptance
  0.7,                                    !- Solar Absorptance
  0.7;                                    !- Visible Absorptance

OS:Material,
  {349797f1-03f9-4689-860a-77752f078dee}, !- Handle
  Roof Insulation [18],                   !- Name
  MediumRough,                            !- Roughness
  0.1693,                                 !- Thickness {m}
  0.049,                                  !- Conductivity {W/m-K}
  265,                                    !- Density {kg/m3}
  836.800000000001,                       !- Specific Heat {J/kg-K}
  0.9,                                    !- Thermal Absorptance
  0.7,                                    !- Solar Absorptance
  0.7;                                    !- Visible Absorptance

OS:Material,
  {ab5006d9-75bc-41b3-9d1c-25037491acb3}, !- Handle
  Metal Decking,                          !- Name
  MediumSmooth,                           !- Roughness
  0.0015,                                 !- Thickness {m}
  45.006,                                 !- Conductivity {W/m-K}
  7680,                                   !- Density {kg/m3}
  418.4,                                  !- Specific Heat {J/kg-K}
  0.9,                                    !- Thermal Absorptance
  0.6,                                    !- Solar Absorptance
  0.6;                                    !- Visible Absorptance

OS:Construction,
  {98bbb8bb-0dd3-46f9-baba-877ad040eed5}, !- Handle
  ASHRAE 189.1-2009 ExtRoof IEAD ClimateZone 2-5, !- Name
  ,                                       !- Surface Rendering Name
  {9df9c3a2-9878-4496-a084-f62ac35c76b9}, !- Layer 1
  {4bb2b059-5fe8-4f59-a963-b53eff32a685}, !- Layer 2
  {ab5006d9-75bc-41b3-9d1c-25037491acb3}; !- Layer 3

OS:StandardsInformation:Construction,
  {ce0f0fef-e452-4202-b6db-d565864229ba}, !- Handle
  {98bbb8bb-0dd3-46f9-baba-877ad040eed5}, !- Construction Name
  ExteriorRoof,                           !- Intended Surface Type
  IEAD;                                   !- Standards Construction Type

OS:Material,
  {4bb2b059-5fe8-4f59-a963-b53eff32a685}, !- Handle
  Roof Insulation [21],                   !- Name
  MediumRough,                            !- Roughness
  0.2105,                                 !- Thickness {m}
  0.049,                                  !- Conductivity {W/m-K}
  265,                                    !- Density {kg/m3}
  836.800000000001,                       !- Specific Heat {J/kg-K}
  0.9,                                    !- Thermal Absorptance
  0.7,                                    !- Solar Absorptance
  0.7;                                    !- Visible Absorptance

OS:Construction,
  {b3264123-37e7-45d4-98c4-9ab141317340}, !- Handle
  ASHRAE 189.1-2009 ExtRoof IEAD ClimateZone 6, !- Name
  ,                                       !- Surface Rendering Name
  {9df9c3a2-9878-4496-a084-f62ac35c76b9}, !- Layer 1
  {0359c191-b57c-40f4-b838-801f9792aeb8}, !- Layer 2
  {ab5006d9-75bc-41b3-9d1c-25037491acb3}; !- Layer 3

OS:StandardsInformation:Construction,
  {88b339c6-8d0a-4b11-a2ca-aa3fc30f6b1b}, !- Handle
  {b3264123-37e7-45d4-98c4-9ab141317340}, !- Construction Name
  ExteriorRoof,                           !- Intended Surface Type
  IEAD;                                   !- Standards Construction Type

OS:Material,
  {0359c191-b57c-40f4-b838-801f9792aeb8}, !- Handle
  Roof Insulation [24],                   !- Name
  MediumRough,                            !- Roughness
  0.260100000000001,                      !- Thickness {m}
  0.049,                                  !- Conductivity {W/m-K}
  265,                                    !- Density {kg/m3}
  836.800000000001,                       !- Specific Heat {J/kg-K}
  0.9,                                    !- Thermal Absorptance
  0.7,                                    !- Solar Absorptance
  0.7;                                    !- Visible Absorptance

OS:Construction,
  {a09c2233-c235-41ca-a289-b94d349bfef2}, !- Handle
  ASHRAE 189.1-2009 ExtRoof IEAD ClimateZone 7-8, !- Name
  ,                                       !- Surface Rendering Name
  {9df9c3a2-9878-4496-a084-f62ac35c76b9}, !- Layer 1
  {acc0c879-6cef-4af4-be23-66761905c663}, !- Layer 2
  {ab5006d9-75bc-41b3-9d1c-25037491acb3}; !- Layer 3

OS:StandardsInformation:Construction,
  {d3be7de9-2f89-43eb-9b61-cc6352099512}, !- Handle
  {a09c2233-c235-41ca-a289-b94d349bfef2}, !- Construction Name
  ExteriorRoof,                           !- Intended Surface Type
  IEAD;                                   !- Standards Construction Type

OS:Material,
  {acc0c879-6cef-4af4-be23-66761905c663}, !- Handle
  Roof Insulation [26],                   !- Name
  MediumRough,                            !- Roughness
  0.2941,                                 !- Thickness {m}
  0.049,                                  !- Conductivity {W/m-K}
  265,                                    !- Density {kg/m3}
  836.800000000001,                       !- Specific Heat {J/kg-K}
  0.9,                                    !- Thermal Absorptance
  0.7,                                    !- Solar Absorptance
  0.7;                                    !- Visible Absorptance

OS:Construction,
  {3a5a7036-12bb-45c2-b1a3-a032c4af415e}, !- Handle
  ASHRAE 189.1-2009 ExtRoof Metal ClimateZone 1, !- Name
  ,                                       !- Surface Rendering Name
  {3d382e7a-6d87-4f1b-897e-e74ab22371aa}, !- Layer 1
  {b3374f27-a553-4738-b890-6a6bc94575bb}, !- Layer 2
  {ab5006d9-75bc-41b3-9d1c-25037491acb3}; !- Layer 3

OS:StandardsInformation:Construction,
  {d0a8425d-d73b-461f-8ec6-a38f60a31aa7}, !- Handle
  {3a5a7036-12bb-45c2-b1a3-a032c4af415e}, !- Construction Name
  ExteriorRoof,                           !- Intended Surface Type
  Metal;                                  !- Standards Construction Type

OS:Material,
  {3d382e7a-6d87-4f1b-897e-e74ab22371aa}, !- Handle
  Metal Roofing,                          !- Name
  MediumSmooth,                           !- Roughness
  0.0015,                                 !- Thickness {m}
  45.006,                                 !- Conductivity {W/m-K}
  7680,                                   !- Density {kg/m3}
  418.4,                                  !- Specific Heat {J/kg-K}
  0.9,                                    !- Thermal Absorptance
  0.6,                                    !- Solar Absorptance
  0.6;                                    !- Visible Absorptance

OS:Material,
  {b3374f27-a553-4738-b890-6a6bc94575bb}, !- Handle
  Roof Insulation [19],                   !- Name
  MediumRough,                            !- Roughness
  0.1868,                                 !- Thickness {m}
  0.049,                                  !- Conductivity {W/m-K}
  265,                                    !- Density {kg/m3}
  836.800000000001,                       !- Specific Heat {J/kg-K}
  0.9,                                    !- Thermal Absorptance
  0.7,                                    !- Solar Absorptance
  0.7;                                    !- Visible Absorptance

OS:Construction,
  {0f5033b4-c578-4295-919a-b58754a56dd4}, !- Handle
  ASHRAE 189.1-2009 ExtRoof Metal ClimateZone 2-5, !- Name
  ,                                       !- Surface Rendering Name
  {3d382e7a-6d87-4f1b-897e-e74ab22371aa}, !- Layer 1
  {65c9055f-be7b-487d-a679-38af66c8066f}, !- Layer 2
  {ab5006d9-75bc-41b3-9d1c-25037491acb3}; !- Layer 3

OS:StandardsInformation:Construction,
  {e96848e6-741d-4d7c-8373-1906d677d0e9}, !- Handle
  {0f5033b4-c578-4295-919a-b58754a56dd4}, !- Construction Name
  ExteriorRoof,                           !- Intended Surface Type
  Metal;                                  !- Standards Construction Type

OS:Material,
  {65c9055f-be7b-487d-a679-38af66c8066f}, !- Handle
  Roof Insulation [22],                   !- Name
  MediumRough,                            !- Roughness
  0.2358,                                 !- Thickness {m}
  0.049,                                  !- Conductivity {W/m-K}
  265,                                    !- Density {kg/m3}
  836.800000000001,                       !- Specific Heat {J/kg-K}
  0.9,                                    !- Thermal Absorptance
  0.7,                                    !- Solar Absorptance
  0.7;                                    !- Visible Absorptance

OS:Construction,
  {4e7ba67c-1770-4b4e-93be-f2d8211377ae}, !- Handle
  ASHRAE 189.1-2009 ExtRoof Metal ClimateZone 6, !- Name
  ,                                       !- Surface Rendering Name
  {3d382e7a-6d87-4f1b-897e-e74ab22371aa}, !- Layer 1
  {4cd5f422-be0e-4203-a854-469f815d7a91}, !- Layer 2
  {ab5006d9-75bc-41b3-9d1c-25037491acb3}; !- Layer 3

OS:StandardsInformation:Construction,
  {f3161a6c-676e-4d3d-b80c-a017c4aa3bde}, !- Handle
  {4e7ba67c-1770-4b4e-93be-f2d8211377ae}, !- Construction Name
  ExteriorRoof,                           !- Intended Surface Type
  Metal;                                  !- Standards Construction Type

OS:Material,
  {4cd5f422-be0e-4203-a854-469f815d7a91}, !- Handle
  Roof Insulation [25],                   !- Name
  MediumRough,                            !- Roughness
  0.263,                                  !- Thickness {m}
  0.049,                                  !- Conductivity {W/m-K}
  265,                                    !- Density {kg/m3}
  836.800000000001,                       !- Specific Heat {J/kg-K}
  0.9,                                    !- Thermal Absorptance
  0.7,                                    !- Solar Absorptance
  0.7;                                    !- Visible Absorptance

OS:Construction,
  {ac2b32a4-3283-4c94-baa3-35affca289c8}, !- Handle
  ASHRAE 189.1-2009 ExtRoof Metal ClimateZone 7-8, !- Name
  ,                                       !- Surface Rendering Name
  {3d382e7a-6d87-4f1b-897e-e74ab22371aa}, !- Layer 1
  {3ccf8f94-b9dc-46dd-9a32-68dc5399a02e}, !- Layer 2
  {ab5006d9-75bc-41b3-9d1c-25037491acb3}; !- Layer 3

OS:StandardsInformation:Construction,
  {2a39ac58-ad65-49ab-8ec1-021a976d05bd}, !- Handle
  {ac2b32a4-3283-4c94-baa3-35affca289c8}, !- Construction Name
  ExteriorRoof,                           !- Intended Surface Type
  Metal;                                  !- Standards Construction Type

OS:Material,
  {3ccf8f94-b9dc-46dd-9a32-68dc5399a02e}, !- Handle
  Roof Insulation [27],                   !- Name
  MediumRough,                            !- Roughness
  0.297000000000001,                      !- Thickness {m}
  0.049,                                  !- Conductivity {W/m-K}
  265,                                    !- Density {kg/m3}
  836.800000000001,                       !- Specific Heat {J/kg-K}
  0.9,                                    !- Thermal Absorptance
  0.7,                                    !- Solar Absorptance
  0.7;                                    !- Visible Absorptance

OS:Construction,
  {8fee6d35-3ead-4967-9fdb-2423e6b8f561}, !- Handle
  ASHRAE 189.1-2009 ExtWall Mass ClimateZone 1, !- Name
  ,                                       !- Surface Rendering Name
  {40b423fa-ba00-4ea9-9abd-81292a74c709}, !- Layer 1
  {53b4112a-9ee5-4319-ab78-7db009772c7b}, !- Layer 2
  {38f31aaa-dc22-4e37-92ea-87b4f0115cfc}, !- Layer 3
  {3311b2d7-962b-43e0-8daa-568401383aeb}; !- Layer 4

OS:StandardsInformation:Construction,
  {69748d28-8c43-416a-bea6-52d0b47415d5}, !- Handle
  {8fee6d35-3ead-4967-9fdb-2423e6b8f561}, !- Construction Name
  ExteriorWall,                           !- Intended Surface Type
  Mass;                                   !- Standards Construction Type

OS:Material,
  {40b423fa-ba00-4ea9-9abd-81292a74c709}, !- Handle
  1IN Stucco,                             !- Name
  Smooth,                                 !- Roughness
  0.0253,                                 !- Thickness {m}
  0.691799999999999,                      !- Conductivity {W/m-K}
  1858,                                   !- Density {kg/m3}
  836.999999999999,                       !- Specific Heat {J/kg-K}
  0.9,                                    !- Thermal Absorptance
  0.92,                                   !- Solar Absorptance
  0.92;                                   !- Visible Absorptance

OS:Material,
  {53b4112a-9ee5-4319-ab78-7db009772c7b}, !- Handle
  8IN Concrete HW,                        !- Name
  MediumRough,                            !- Roughness
  0.2033,                                 !- Thickness {m}
  1.72959999999999,                       !- Conductivity {W/m-K}
  2242.99999999999,                       !- Density {kg/m3}
  836.999999999999,                       !- Specific Heat {J/kg-K}
  0.9,                                    !- Thermal Absorptance
  0.65,                                   !- Solar Absorptance
  0.65;                                   !- Visible Absorptance

OS:Material,
  {38f31aaa-dc22-4e37-92ea-87b4f0115cfc}, !- Handle
  Wall Insulation [31],                   !- Name
  MediumRough,                            !- Roughness
  0.0337000000000001,                     !- Thickness {m}
  0.0432,                                 !- Conductivity {W/m-K}
  91,                                     !- Density {kg/m3}
  836.999999999999,                       !- Specific Heat {J/kg-K}
  0.9,                                    !- Thermal Absorptance
  0.5,                                    !- Solar Absorptance
  0.5;                                    !- Visible Absorptance

OS:Construction,
  {ca54bc5e-3b20-49c4-90cd-76879bbcf2f9}, !- Handle
  ASHRAE 189.1-2009 ExtWall Mass ClimateZone 2, !- Name
  ,                                       !- Surface Rendering Name
  {40b423fa-ba00-4ea9-9abd-81292a74c709}, !- Layer 1
  {53b4112a-9ee5-4319-ab78-7db009772c7b}, !- Layer 2
  {b60445b7-04ce-49a7-9cc7-c74e30a3cf87}, !- Layer 3
  {3311b2d7-962b-43e0-8daa-568401383aeb}; !- Layer 4

OS:StandardsInformation:Construction,
  {e0b10a2c-2c3d-40ed-8da5-602bb57443c6}, !- Handle
  {ca54bc5e-3b20-49c4-90cd-76879bbcf2f9}, !- Construction Name
  ExteriorWall,                           !- Intended Surface Type
  Mass;                                   !- Standards Construction Type

OS:Material,
  {b60445b7-04ce-49a7-9cc7-c74e30a3cf87}, !- Handle
  Wall Insulation [35],                   !- Name
  MediumRough,                            !- Roughness
  0.0452,                                 !- Thickness {m}
  0.0432,                                 !- Conductivity {W/m-K}
  91,                                     !- Density {kg/m3}
  836.999999999999,                       !- Specific Heat {J/kg-K}
  0.9,                                    !- Thermal Absorptance
  0.5,                                    !- Solar Absorptance
  0.5;                                    !- Visible Absorptance

OS:Construction,
  {65d57866-1d0b-413a-bc45-a3c775146304}, !- Handle
  ASHRAE 189.1-2009 ExtWall Mass ClimateZone 3, !- Name
  ,                                       !- Surface Rendering Name
  {40b423fa-ba00-4ea9-9abd-81292a74c709}, !- Layer 1
  {53b4112a-9ee5-4319-ab78-7db009772c7b}, !- Layer 2
  {ad1609f9-f5a9-41e0-9b00-9fb514206d1f}, !- Layer 3
  {3311b2d7-962b-43e0-8daa-568401383aeb}; !- Layer 4

OS:StandardsInformation:Construction,
  {63808642-4d2e-43b3-bd82-f1f2b67c0ebe}, !- Handle
  {65d57866-1d0b-413a-bc45-a3c775146304}, !- Construction Name
  ExteriorWall,                           !- Intended Surface Type
  Mass;                                   !- Standards Construction Type

OS:Material,
  {ad1609f9-f5a9-41e0-9b00-9fb514206d1f}, !- Handle
  Wall Insulation [36],                   !- Name
  MediumRough,                            !- Roughness
  0.0565999999999999,                     !- Thickness {m}
  0.0432,                                 !- Conductivity {W/m-K}
  91,                                     !- Density {kg/m3}
  836.999999999999,                       !- Specific Heat {J/kg-K}
  0.9,                                    !- Thermal Absorptance
  0.5,                                    !- Solar Absorptance
  0.5;                                    !- Visible Absorptance

OS:Construction,
  {8e2464af-c14f-4191-8a34-bf4513b9efd7}, !- Handle
  ASHRAE 189.1-2009 ExtWall Mass ClimateZone 4, !- Name
  ,                                       !- Surface Rendering Name
  {40b423fa-ba00-4ea9-9abd-81292a74c709}, !- Layer 1
  {53b4112a-9ee5-4319-ab78-7db009772c7b}, !- Layer 2
  {a8603f1c-a7de-463a-84b9-3cde9fadd0c6}, !- Layer 3
  {3311b2d7-962b-43e0-8daa-568401383aeb}; !- Layer 4

OS:StandardsInformation:Construction,
  {c27d7910-7ebb-4d32-b588-5671492c6b26}, !- Handle
  {8e2464af-c14f-4191-8a34-bf4513b9efd7}, !- Construction Name
  ExteriorWall,                           !- Intended Surface Type
  Mass;                                   !- Standards Construction Type

OS:Material,
  {a8603f1c-a7de-463a-84b9-3cde9fadd0c6}, !- Handle
  Wall Insulation [37],                   !- Name
  MediumRough,                            !- Roughness
  0.0680999999999999,                     !- Thickness {m}
  0.0432,                                 !- Conductivity {W/m-K}
  91,                                     !- Density {kg/m3}
  836.999999999999,                       !- Specific Heat {J/kg-K}
  0.9,                                    !- Thermal Absorptance
  0.5,                                    !- Solar Absorptance
  0.5;                                    !- Visible Absorptance

OS:Construction,
  {81444fb5-1721-43bd-bacd-bcfc32cba9cd}, !- Handle
  ASHRAE 189.1-2009 ExtWall Mass ClimateZone 5, !- Name
  ,                                       !- Surface Rendering Name
  {40b423fa-ba00-4ea9-9abd-81292a74c709}, !- Layer 1
  {53b4112a-9ee5-4319-ab78-7db009772c7b}, !- Layer 2
  {56cfe70f-4faf-4a31-8941-b82b42f2917f}, !- Layer 3
  {3311b2d7-962b-43e0-8daa-568401383aeb}; !- Layer 4

OS:StandardsInformation:Construction,
  {03933541-8c73-4914-b616-315a1669d02a}, !- Handle
  {81444fb5-1721-43bd-bacd-bcfc32cba9cd}, !- Construction Name
  ExteriorWall,                           !- Intended Surface Type
  Mass;                                   !- Standards Construction Type

OS:Material,
  {56cfe70f-4faf-4a31-8941-b82b42f2917f}, !- Handle
  Wall Insulation [40],                   !- Name
  MediumRough,                            !- Roughness
  0.0793999999999999,                     !- Thickness {m}
  0.0432,                                 !- Conductivity {W/m-K}
  91,                                     !- Density {kg/m3}
  836.999999999999,                       !- Specific Heat {J/kg-K}
  0.9,                                    !- Thermal Absorptance
  0.5,                                    !- Solar Absorptance
  0.5;                                    !- Visible Absorptance

OS:Construction,
  {f6b690e5-a17d-488d-9188-0b549f112315}, !- Handle
  ASHRAE 189.1-2009 ExtWall Mass ClimateZone 6, !- Name
  ,                                       !- Surface Rendering Name
  {40b423fa-ba00-4ea9-9abd-81292a74c709}, !- Layer 1
  {53b4112a-9ee5-4319-ab78-7db009772c7b}, !- Layer 2
  {acb525d3-f155-4322-8375-76f66473c31f}, !- Layer 3
  {3311b2d7-962b-43e0-8daa-568401383aeb}; !- Layer 4

OS:StandardsInformation:Construction,
  {e8917bea-e6c6-4534-81a1-7c8f11646185}, !- Handle
  {f6b690e5-a17d-488d-9188-0b549f112315}, !- Construction Name
  ExteriorWall,                           !- Intended Surface Type
  Mass;                                   !- Standards Construction Type

OS:Material,
  {acb525d3-f155-4322-8375-76f66473c31f}, !- Handle
  Wall Insulation [42],                   !- Name
  MediumRough,                            !- Roughness
  0.0913999999999999,                     !- Thickness {m}
  0.0432,                                 !- Conductivity {W/m-K}
  91,                                     !- Density {kg/m3}
  836.999999999999,                       !- Specific Heat {J/kg-K}
  0.9,                                    !- Thermal Absorptance
  0.5,                                    !- Solar Absorptance
  0.5;                                    !- Visible Absorptance

OS:Construction,
  {73c13304-e1c8-4885-8aaa-109e414ff3a1}, !- Handle
  ASHRAE 189.1-2009 ExtWall Mass ClimateZone 7-8, !- Name
  ,                                       !- Surface Rendering Name
  {40b423fa-ba00-4ea9-9abd-81292a74c709}, !- Layer 1
  {53b4112a-9ee5-4319-ab78-7db009772c7b}, !- Layer 2
  {e2df0bd3-cb03-4138-a19a-8afc8d0d2f08}, !- Layer 3
  {3311b2d7-962b-43e0-8daa-568401383aeb}; !- Layer 4

OS:StandardsInformation:Construction,
  {60d38b4a-142d-485e-abb6-f910fa4149ee}, !- Handle
  {73c13304-e1c8-4885-8aaa-109e414ff3a1}, !- Construction Name
  ExteriorWall,                           !- Intended Surface Type
  Mass;                                   !- Standards Construction Type

OS:Material,
  {e2df0bd3-cb03-4138-a19a-8afc8d0d2f08}, !- Handle
  Wall Insulation [44],                   !- Name
  MediumRough,                            !- Roughness
  0.1104,                                 !- Thickness {m}
  0.0432,                                 !- Conductivity {W/m-K}
  91,                                     !- Density {kg/m3}
  836.999999999999,                       !- Specific Heat {J/kg-K}
  0.9,                                    !- Thermal Absorptance
  0.5,                                    !- Solar Absorptance
  0.5;                                    !- Visible Absorptance

OS:Construction,
  {b64b6cd9-014c-462e-a43f-fecbe8c93ffa}, !- Handle
  ASHRAE 189.1-2009 ExtWall Mass ClimateZone alt-res 1, !- Name
  ,                                       !- Surface Rendering Name
  {40b423fa-ba00-4ea9-9abd-81292a74c709}, !- Layer 1
  {53b4112a-9ee5-4319-ab78-7db009772c7b}, !- Layer 2
  {b60445b7-04ce-49a7-9cc7-c74e30a3cf87}, !- Layer 3
  {3311b2d7-962b-43e0-8daa-568401383aeb}; !- Layer 4

OS:StandardsInformation:Construction,
  {edad6bf3-e2da-445c-b936-3a413343a88f}, !- Handle
  {b64b6cd9-014c-462e-a43f-fecbe8c93ffa}, !- Construction Name
  ExteriorWall,                           !- Intended Surface Type
  Mass;                                   !- Standards Construction Type

OS:Construction,
  {751fd8d8-9db5-4d38-91fa-278580e7988a}, !- Handle
  ASHRAE 189.1-2009 ExtWall Mass ClimateZone alt-res 2, !- Name
  ,                                       !- Surface Rendering Name
  {40b423fa-ba00-4ea9-9abd-81292a74c709}, !- Layer 1
  {53b4112a-9ee5-4319-ab78-7db009772c7b}, !- Layer 2
  {ad1609f9-f5a9-41e0-9b00-9fb514206d1f}, !- Layer 3
  {3311b2d7-962b-43e0-8daa-568401383aeb}; !- Layer 4

OS:StandardsInformation:Construction,
  {3c18db1b-17ab-40dc-8563-104db0b2aed0}, !- Handle
  {751fd8d8-9db5-4d38-91fa-278580e7988a}, !- Construction Name
  ExteriorWall,                           !- Intended Surface Type
  Mass;                                   !- Standards Construction Type

OS:Construction,
  {4e711b03-4b86-49ac-8dc0-240b18070f2a}, !- Handle
  ASHRAE 189.1-2009 ExtWall Mass ClimateZone alt-res 3, !- Name
  ,                                       !- Surface Rendering Name
  {40b423fa-ba00-4ea9-9abd-81292a74c709}, !- Layer 1
  {53b4112a-9ee5-4319-ab78-7db009772c7b}, !- Layer 2
  {a8603f1c-a7de-463a-84b9-3cde9fadd0c6}, !- Layer 3
  {3311b2d7-962b-43e0-8daa-568401383aeb}; !- Layer 4

OS:StandardsInformation:Construction,
  {f97acbeb-13f5-45f9-8ccd-c8c973edfcc4}, !- Handle
  {4e711b03-4b86-49ac-8dc0-240b18070f2a}, !- Construction Name
  ExteriorWall,                           !- Intended Surface Type
  Mass;                                   !- Standards Construction Type

OS:Construction,
  {32f643f4-2155-46eb-9f1a-603c8554167b}, !- Handle
  ASHRAE 189.1-2009 ExtWall Mass ClimateZone alt-res 4, !- Name
  ,                                       !- Surface Rendering Name
  {40b423fa-ba00-4ea9-9abd-81292a74c709}, !- Layer 1
  {53b4112a-9ee5-4319-ab78-7db009772c7b}, !- Layer 2
  {56cfe70f-4faf-4a31-8941-b82b42f2917f}, !- Layer 3
  {3311b2d7-962b-43e0-8daa-568401383aeb}; !- Layer 4

OS:StandardsInformation:Construction,
  {feaabeae-dd48-4483-ab9b-3a3d7373d2f1}, !- Handle
  {32f643f4-2155-46eb-9f1a-603c8554167b}, !- Construction Name
  ExteriorWall,                           !- Intended Surface Type
  Mass;                                   !- Standards Construction Type

OS:Construction,
  {9b2b64af-4d0a-4531-977f-319a79fbd074}, !- Handle
  ASHRAE 189.1-2009 ExtWall Mass ClimateZone alt-res 5, !- Name
  ,                                       !- Surface Rendering Name
  {40b423fa-ba00-4ea9-9abd-81292a74c709}, !- Layer 1
  {53b4112a-9ee5-4319-ab78-7db009772c7b}, !- Layer 2
  {acb525d3-f155-4322-8375-76f66473c31f}, !- Layer 3
  {3311b2d7-962b-43e0-8daa-568401383aeb}; !- Layer 4

OS:StandardsInformation:Construction,
  {a811cba7-fc15-49f3-a9cb-d86fa2863c52}, !- Handle
  {9b2b64af-4d0a-4531-977f-319a79fbd074}, !- Construction Name
  ExteriorWall,                           !- Intended Surface Type
  Mass;                                   !- Standards Construction Type

OS:Construction,
  {6b32aea9-ba20-4729-a717-3b4ae4a9f196}, !- Handle
  ASHRAE 189.1-2009 ExtWall Mass ClimateZone alt-res 6, !- Name
  ,                                       !- Surface Rendering Name
  {40b423fa-ba00-4ea9-9abd-81292a74c709}, !- Layer 1
  {53b4112a-9ee5-4319-ab78-7db009772c7b}, !- Layer 2
  {e2df0bd3-cb03-4138-a19a-8afc8d0d2f08}, !- Layer 3
  {3311b2d7-962b-43e0-8daa-568401383aeb}; !- Layer 4

OS:StandardsInformation:Construction,
  {0a57bc90-c53f-4b46-96d5-732db352cc82}, !- Handle
  {6b32aea9-ba20-4729-a717-3b4ae4a9f196}, !- Construction Name
  ExteriorWall,                           !- Intended Surface Type
  Mass;                                   !- Standards Construction Type

OS:Construction,
  {ed3288d3-d4c6-4fdb-b51e-28e0623a1210}, !- Handle
  ASHRAE 189.1-2009 ExtWall Mass ClimateZone alt-res 7, !- Name
  ,                                       !- Surface Rendering Name
  {40b423fa-ba00-4ea9-9abd-81292a74c709}, !- Layer 1
  {53b4112a-9ee5-4319-ab78-7db009772c7b}, !- Layer 2
  {e2df0bd3-cb03-4138-a19a-8afc8d0d2f08}, !- Layer 3
  {3311b2d7-962b-43e0-8daa-568401383aeb}; !- Layer 4

OS:StandardsInformation:Construction,
  {5c93a774-184d-4f23-8845-e817946c54b2}, !- Handle
  {ed3288d3-d4c6-4fdb-b51e-28e0623a1210}, !- Construction Name
  ExteriorWall,                           !- Intended Surface Type