
OS:Version,
  {c9f1b2a8-62ca-470b-871e-72a1807a0c2d}, !- Handle
  1.2.3;                                  !- Version Identifier

OS:Construction,
  {67574827-26e5-457b-a3e7-607ae70a31d8}, !- Handle
  ASHRAE 189.1-2009 AtticFloor ClimateZone 1-8, !- Name
  ,                                       !- Surface Rendering Name
  {21053480-83a1-43e3-93f4-39421d130cb1}, !- Layer 1
  {ebeb59fe-87e1-41c2-ae3d-6ed5effc8a07}, !- Layer 2
  {21053480-83a1-43e3-93f4-39421d130cb1}; !- Layer 3

OS:StandardsInformation:Construction,
  {1d6d9aa7-a99b-4d4c-b23a-6cbcc8ed91ef}, !- Handle
  {67574827-26e5-457b-a3e7-607ae70a31d8}, !- Construction Name
  AtticFloor,                             !- Intended Surface Type
  WoodFramed;                             !- Standards Construction Type

OS:Material,
  {21053480-83a1-43e3-93f4-39421d130cb1}, !- Handle
  1/2IN Gypsum,                           !- Name
  Smooth,                                 !- Roughness
  0.0127,                                 !- Thickness {m}
  0.16,                                   !- Conductivity {W/m-K}
  784.9,                                  !- Density {kg/m3}
  830.000000000001,                       !- Specific Heat {J/kg-K}
  0.9,                                    !- Thermal Absorptance
  0.92,                                   !- Solar Absorptance
  0.92;                                   !- Visible Absorptance

OS:Material,
  {ebeb59fe-87e1-41c2-ae3d-6ed5effc8a07}, !- Handle
  AtticFloor Insulation,                  !- Name
  MediumRough,                            !- Roughness
  0.2379,                                 !- Thickness {m}
  0.049,                                  !- Conductivity {W/m-K}
  265,                                    !- Density {kg/m3}
  836.800000000001,                       !- Specific Heat {J/kg-K}
  0.9,                                    !- Thermal Absorptance
  0.7,                                    !- Solar Absorptance
  0.7;                                    !- Visible Absorptance

OS:Construction,
  {c7b955eb-3ce4-45a0-aa4a-c09d0ef4f895}, !- Handle
  ASHRAE 189.1-2009 ExtRoof IEAD ClimateZone 1, !- Name
  ,                                       !- Surface Rendering Name
  {bf6c3fa5-1e1c-4f46-8507-ae78f75523c2}, !- Layer 1
  {68ddb6b1-c5f5-410e-926d-ad8e2c75dd7d}, !- Layer 2
  {b39de942-af1b-46c3-ad17-902aa1853774}; !- Layer 3

OS:StandardsInformation:Construction,
  {197745c3-b029-4393-b5a0-27bc575f411f}, !- Handle
  {c7b955eb-3ce4-45a0-aa4a-c09d0ef4f895}, !- Construction Name
  ExteriorRoof,                           !- Intended Surface Type
  IEAD;                                   !- Standards Construction Type

OS:Material,
  {bf6c3fa5-1e1c-4f46-8507-ae78f75523c2}, !- Handle
  Roof Membrane,                          !- Name
  VeryRough,                              !- Roughness
  0.0095,                                 !- Thickness {m}
  0.16,                                   !- Conductivity {W/m-K}
  1121.29,                                !- Density {kg/m3}
  1460,                                   !- Specific Heat {J/kg-K}
  0.9,                                    !- Thermal Absorptance
  0.7,                                    !- Solar Absorptance
  0.7;                                    !- Visible Absorptance

OS:Material,
  {68ddb6b1-c5f5-410e-926d-ad8e2c75dd7d}, !- Handle
  Roof Insulation [18],                   !- Name
  MediumRough,                            !- Roughness
  0.1693,                                 !- Thickness {m}
  0.049,                                  !- Conductivity {W/m-K}
  265,                                    !- Density {kg/m3}
  836.800000000001,                       !- Specific Heat {J/kg-K}
  0.9,                                    !- Thermal Absorptance
  0.7,                                    !- Solar Absorptance
  0.7;                                    !- Visible Absorptance

OS:Material,
  {b39de942-af1b-46c3-ad17-902aa1853774}, !- Handle
  Metal Decking,                          !- Name
  MediumSmooth,                           !- Roughness
  0.0015,                                 !- Thickness {m}
  45.006,                                 !- Conductivity {W/m-K}
  7680,                                   !- Density {kg/m3}
  418.4,                                  !- Specific Heat {J/kg-K}
  0.9,                                    !- Thermal Absorptance
  0.7,                                    !- Solar Absorptance
  0.3;                                    !- Visible Absorptance

OS:Construction,
  {58e92361-9e4d-4262-979f-825f21e11a85}, !- Handle
  ASHRAE 189.1-2009 ExtRoof IEAD ClimateZone 2-5, !- Name
  ,                                       !- Surface Rendering Name
  {bf6c3fa5-1e1c-4f46-8507-ae78f75523c2}, !- Layer 1
  {0c8c4028-c871-4048-a0cf-685da886ec2e}, !- Layer 2
  {b39de942-af1b-46c3-ad17-902aa1853774}; !- Layer 3

OS:StandardsInformation:Construction,
  {2a2629d1-2730-41df-ae07-de0fdc1daeb6}, !- Handle
  {58e92361-9e4d-4262-979f-825f21e11a85}, !- Construction Name
  ExteriorRoof,                           !- Intended Surface Type
  IEAD;                                   !- Standards Construction Type

OS:Material,
  {0c8c4028-c871-4048-a0cf-685da886ec2e}, !- Handle
  Roof Insulation [21],                   !- Name
  MediumRough,                            !- Roughness
  0.2105,                                 !- Thickness {m}
  0.049,                                  !- Conductivity {W/m-K}
  265,                                    !- Density {kg/m3}
  836.800000000001,                       !- Specific Heat {J/kg-K}
  0.9,                                    !- Thermal Absorptance
  0.7,                                    !- Solar Absorptance
  0.7;                                    !- Visible Absorptance

OS:Construction,
  {d1ab04fc-e895-4aa0-a4e5-acedf0794706}, !- Handle
  ASHRAE 189.1-2009 ExtRoof IEAD ClimateZone 6, !- Name
  ,                                       !- Surface Rendering Name
  {bf6c3fa5-1e1c-4f46-8507-ae78f75523c2}, !- Layer 1
  {c0217ead-ba57-41b2-8213-ce7d7a1b8e85}, !- Layer 2
  {b39de942-af1b-46c3-ad17-902aa1853774}; !- Layer 3

OS:StandardsInformation:Construction,
  {ccb7907c-959c-4e5e-be55-2dcf1e26627b}, !- Handle
  {d1ab04fc-e895-4aa0-a4e5-acedf0794706}, !- Construction Name
  ExteriorRoof,                           !- Intended Surface Type
  IEAD;                                   !- Standards Construction Type

OS:Material,
  {c0217ead-ba57-41b2-8213-ce7d7a1b8e85}, !- Handle
  Roof Insulation [24],                   !- Name
  MediumRough,                            !- Roughness
  0.260100000000001,                      !- Thickness {m}
  0.049,                                  !- Conductivity {W/m-K}
  265,                                    !- Density {kg/m3}
  836.800000000001,                       !- Specific Heat {J/kg-K}
  0.9,                                    !- Thermal Absorptance
  0.7,                                    !- Solar Absorptance
  0.7;                                    !- Visible Absorptance

OS:Construction,
  {88f214e4-ae09-4215-9d66-befd45dec59e}, !- Handle
  ASHRAE 189.1-2009 ExtRoof IEAD ClimateZone 7-8, !- Name
  ,                                       !- Surface Rendering Name
  {bf6c3fa5-1e1c-4f46-8507-ae78f75523c2}, !- Layer 1
  {bc396d26-a184-4377-8488-03ffaba72a73}, !- Layer 2
  {b39de942-af1b-46c3-ad17-902aa1853774}; !- Layer 3

OS:StandardsInformation:Construction,
  {36b46f6a-4e5f-41e2-83ec-ec525cfbbd39}, !- Handle
  {88f214e4-ae09-4215-9d66-befd45dec59e}, !- Construction Name
  ExteriorRoof,                           !- Intended Surface Type
  IEAD;                                   !- Standards Construction Type

OS:Material,
  {bc396d26-a184-4377-8488-03ffaba72a73}, !- Handle
  Roof Insulation [26],                   !- Name
  MediumRough,                            !- Roughness
  0.2941,                                 !- Thickness {m}
  0.049,                                  !- Conductivity {W/m-K}
  265,                                    !- Density {kg/m3}
  836.800000000001,                       !- Specific Heat {J/kg-K}
  0.9,                                    !- Thermal Absorptance
  0.7,                                    !- Solar Absorptance
  0.7;                                    !- Visible Absorptance

OS:Construction,
  {b639c7ca-f668-425a-a69e-4529cb240884}, !- Handle
  ASHRAE 189.1-2009 ExtRoof Metal ClimateZone 1, !- Name
  ,                                       !- Surface Rendering Name
  {e68e99ae-eb2c-4cf1-8374-324db8663540}, !- Layer 1
  {ab16cf43-2668-48b6-b1b3-e110c517d48e}; !- Layer 2

OS:StandardsInformation:Construction,
  {634d1098-e93a-4f0a-83fc-d2086d6c843e}, !- Handle
  {b639c7ca-f668-425a-a69e-4529cb240884}, !- Construction Name
  ExteriorRoof,                           !- Intended Surface Type
  Metal;                                  !- Standards Construction Type

OS:Material,
  {e68e99ae-eb2c-4cf1-8374-324db8663540}, !- Handle
  Metal Roofing,                          !- Name
  MediumSmooth,                           !- Roughness
  0.0015,                                 !- Thickness {m}
  45.006,                                 !- Conductivity {W/m-K}
  7680,                                   !- Density {kg/m3}
  418.4,                                  !- Specific Heat {J/kg-K}
  0.9,                                    !- Thermal Absorptance
  0.3,                                    !- Solar Absorptance
  0.3;                                    !- Visible Absorptance

OS:Material,
  {ab16cf43-2668-48b6-b1b3-e110c517d48e}, !- Handle
  Roof Insulation [19],                   !- Name
  MediumRough,                            !- Roughness
  0.1868,                                 !- Thickness {m}
  0.049,                                  !- Conductivity {W/m-K}
  265,                                    !- Density {kg/m3}
  836.800000000001,                       !- Specific Heat {J/kg-K}
  0.9,                                    !- Thermal Absorptance
  0.7,                                    !- Solar Absorptance
  0.7;                                    !- Visible Absorptance

OS:Construction,
  {2ef4aa52-d13f-4c1d-8765-3c3cd34e7f0d}, !- Handle
  ASHRAE 189.1-2009 ExtRoof Metal ClimateZone 2-5, !- Name
  ,                                       !- Surface Rendering Name
  {e68e99ae-eb2c-4cf1-8374-324db8663540}, !- Layer 1
  {0cac1506-9ab2-42c3-b256-57ba1e2c7a11}; !- Layer 2

OS:StandardsInformation:Construction,
  {1fcc465b-1b93-47ec-ad99-383d8d6ffe67}, !- Handle
  {2ef4aa52-d13f-4c1d-8765-3c3cd34e7f0d}, !- Construction Name
  ExteriorRoof,                           !- Intended Surface Type
  Metal;                                  !- Standards Construction Type

OS:Material,
  {0cac1506-9ab2-42c3-b256-57ba1e2c7a11}, !- Handle
  Roof Insulation [22],                   !- Name
  MediumRough,                            !- Roughness
  0.2358,                                 !- Thickness {m}
  0.049,                                  !- Conductivity {W/m-K}
  265,                                    !- Density {kg/m3}
  836.800000000001,                       !- Specific Heat {J/kg-K}
  0.9,                                    !- Thermal Absorptance
  0.7,                                    !- Solar Absorptance
  0.7;                                    !- Visible Absorptance

OS:Construction,
  {52be0161-e006-4695-b6b5-ba6176cdb099}, !- Handle
  ASHRAE 189.1-2009 ExtRoof Metal ClimateZone 6, !- Name
  ,                                       !- Surface Rendering Name
  {e68e99ae-eb2c-4cf1-8374-324db8663540}, !- Layer 1
  {f16c5436-b63c-452b-80f6-ac7befd9b32c}; !- Layer 2

OS:StandardsInformation:Construction,
  {6c4b457a-8766-490d-aee7-fc2e9dad8ecc}, !- Handle
  {52be0161-e006-4695-b6b5-ba6176cdb099}, !- Construction Name
  ExteriorRoof,                           !- Intended Surface Type
  Metal;                                  !- Standards Construction Type

OS:Material,
  {f16c5436-b63c-452b-80f6-ac7befd9b32c}, !- Handle
  Roof Insulation [25],                   !- Name
  MediumRough,                            !- Roughness
  0.263,                                  !- Thickness {m}
  0.049,                                  !- Conductivity {W/m-K}
  265,                                    !- Density {kg/m3}
  836.800000000001,                       !- Specific Heat {J/kg-K}
  0.9,                                    !- Thermal Absorptance
  0.7,                                    !- Solar Absorptance
  0.7;                                    !- Visible Absorptance

OS:Construction,
  {2e625489-99f1-4286-914b-746315a8bce6}, !- Handle
  ASHRAE 189.1-2009 ExtRoof Metal ClimateZone 7-8, !- Name
  ,                                       !- Surface Rendering Name
  {e68e99ae-eb2c-4cf1-8374-324db8663540}, !- Layer 1
  {42497baa-45a1-44d1-a75b-78d15e8e5b07}; !- Layer 2

OS:StandardsInformation:Construction,
  {e505ffb4-0583-47ab-8894-f0908363164c}, !- Handle
  {2e625489-99f1-4286-914b-746315a8bce6}, !- Construction Name
  ExteriorRoof,                           !- Intended Surface Type
  Metal;                                  !- Standards Construction Type

OS:Material,
  {42497baa-45a1-44d1-a75b-78d15e8e5b07}, !- Handle
  Roof Insulation [27],                   !- Name
  MediumRough,                            !- Roughness
  0.297000000000001,                      !- Thickness {m}
  0.049,                                  !- Conductivity {W/m-K}
  265,                                    !- Density {kg/m3}
  836.800000000001,                       !- Specific Heat {J/kg-K}
  0.9,                                    !- Thermal Absorptance
  0.7,                                    !- Solar Absorptance
  0.7;                                    !- Visible Absorptance

OS:Construction,
  {e4b50a2f-9adc-4e0e-9e54-74502ce23308}, !- Handle
  ASHRAE 189.1-2009 ExtWall Mass ClimateZone 1, !- Name
  ,                                       !- Surface Rendering Name
  {259228df-d536-44b0-8d3c-9326d70873de}, !- Layer 1
  {375d20b9-3879-49fe-ba88-73e838f545b4}, !- Layer 2
  {9afff88a-4fbd-4eef-9cf6-f22282698908}, !- Layer 3
  {21053480-83a1-43e3-93f4-39421d130cb1}; !- Layer 4

OS:StandardsInformation:Construction,
  {5af51874-51be-47d5-b70e-925d69880e66}, !- Handle
  {e4b50a2f-9adc-4e0e-9e54-74502ce23308}, !- Construction Name
  ExteriorWall,                           !- Intended Surface Type
  Mass;                                   !- Standards Construction Type

OS:Material,
  {259228df-d536-44b0-8d3c-9326d70873de}, !- Handle
  1IN Stucco,                             !- Name
  Smooth,                                 !- Roughness
  0.0253,                                 !- Thickness {m}
  0.691799999999999,                      !- Conductivity {W/m-K}
  1858,                                   !- Density {kg/m3}
  836.999999999999,                       !- Specific Heat {J/kg-K}
  0.9,                                    !- Thermal Absorptance
  0.92,                                   !- Solar Absorptance
  0.92;                                   !- Visible Absorptance

OS:Material,
  {375d20b9-3879-49fe-ba88-73e838f545b4}, !- Handle
  8IN Concrete HW,                        !- Name
  MediumRough,                            !- Roughness
  0.2033,                                 !- Thickness {m}
  1.72959999999999,                       !- Conductivity {W/m-K}
  2242.99999999999,                       !- Density {kg/m3}
  836.999999999999,                       !- Specific Heat {J/kg-K}
  0.9,                                    !- Thermal Absorptance
  0.65,                                   !- Solar Absorptance
  0.65;                                   !- Visible Absorptance

OS:Material,
  {9afff88a-4fbd-4eef-9cf6-f22282698908}, !- Handle
  Wall Insulation [31],                   !- Name
  MediumRough,                            !- Roughness
  0.0337000000000001,                     !- Thickness {m}
  0.0432,                                 !- Conductivity {W/m-K}
  91,                                     !- Density {kg/m3}
  836.999999999999,                       !- Specific Heat {J/kg-K}
  0.9,                                    !- Thermal Absorptance
  0.5,                                    !- Solar Absorptance
  0.5;                                    !- Visible Absorptance

OS:Construction,
  {4e74f54c-9a65-4964-b242-7cf06e178d39}, !- Handle
  ASHRAE 189.1-2009 ExtWall Mass ClimateZone 2, !- Name
  ,                                       !- Surface Rendering Name
  {259228df-d536-44b0-8d3c-9326d70873de}, !- Layer 1
  {375d20b9-3879-49fe-ba88-73e838f545b4}, !- Layer 2
  {bc8b9f18-039d-40a1-bfa4-3bc5a27e7003}, !- Layer 3
  {21053480-83a1-43e3-93f4-39421d130cb1}; !- Layer 4

OS:StandardsInformation:Construction,
  {acc88796-62ac-427d-abd4-9f672635c3e7}, !- Handle
  {4e74f54c-9a65-4964-b242-7cf06e178d39}, !- Construction Name
  ExteriorWall,                           !- Intended Surface Type
  Mass;                                   !- Standards Construction Type

OS:Material,
  {bc8b9f18-039d-40a1-bfa4-3bc5a27e7003}, !- Handle
  Wall Insulation [35],                   !- Name
  MediumRough,                            !- Roughness
  0.0452,                                 !- Thickness {m}
  0.0432,                                 !- Conductivity {W/m-K}
  91,                                     !- Density {kg/m3}
  836.999999999999,                       !- Specific Heat {J/kg-K}
  0.9,                                    !- Thermal Absorptance
  0.5,                                    !- Solar Absorptance
  0.5;                                    !- Visible Absorptance

OS:Construction,
  {98d2309f-7d85-4cc7-b6a5-490657fe2616}, !- Handle
  ASHRAE 189.1-2009 ExtWall Mass ClimateZone 3, !- Name
  ,                                       !- Surface Rendering Name
  {259228df-d536-44b0-8d3c-9326d70873de}, !- Layer 1
  {375d20b9-3879-49fe-ba88-73e838f545b4}, !- Layer 2
  {17cf9a13-c1e6-4dc4-a0d0-3e6f29eba96e}, !- Layer 3
  {21053480-83a1-43e3-93f4-39421d130cb1}; !- Layer 4

OS:StandardsInformation:Construction,
  {1e211659-fb23-4c5c-9326-e46e049ff72a}, !- Handle
  {98d2309f-7d85-4cc7-b6a5-490657fe2616}, !- Construction Name
  ExteriorWall,                           !- Intended Surface Type
  Mass;                                   !- Standards Construction Type

OS:Material,
  {17cf9a13-c1e6-4dc4-a0d0-3e6f29eba96e}, !- Handle
  Wall Insulation [36],                   !- Name
  MediumRough,                            !- Roughness
  0.0565999999999999,                     !- Thickness {m}
  0.0432,                                 !- Conductivity {W/m-K}
  91,                                     !- Density {kg/m3}
  836.999999999999,                       !- Specific Heat {J/kg-K}
  0.9,                                    !- Thermal Absorptance
  0.5,                                    !- Solar Absorptance
  0.5;                                    !- Visible Absorptance

OS:Construction,
  {32c55596-2984-4a01-acd8-e7f874657c89}, !- Handle
  ASHRAE 189.1-2009 ExtWall Mass ClimateZone 4, !- Name
  ,                                       !- Surface Rendering Name
  {259228df-d536-44b0-8d3c-9326d70873de}, !- Layer 1
  {375d20b9-3879-49fe-ba88-73e838f545b4}, !- Layer 2
  {933b19bd-1e2d-4805-a46f-d39adf08d3b6}, !- Layer 3
  {21053480-83a1-43e3-93f4-39421d130cb1}; !- Layer 4

OS:StandardsInformation:Construction,
  {a99383cd-20dd-4b21-a24f-5cbb69607ab9}, !- Handle
  {32c55596-2984-4a01-acd8-e7f874657c89}, !- Construction Name
  ExteriorWall,                           !- Intended Surface Type
  Mass;                                   !- Standards Construction Type

OS:Material,
  {933b19bd-1e2d-4805-a46f-d39adf08d3b6}, !- Handle
  Wall Insulation [37],                   !- Name
  MediumRough,                            !- Roughness
  0.0680999999999999,                     !- Thickness {m}
  0.0432,                                 !- Conductivity {W/m-K}
  91,                                     !- Density {kg/m3}
  836.999999999999,                       !- Specific Heat {J/kg-K}
  0.9,                                    !- Thermal Absorptance
  0.5,                                    !- Solar Absorptance
  0.5;                                    !- Visible Absorptance

OS:Construction,
  {dc67ed6d-8d73-4b2e-8906-7b56f18b74a6}, !- Handle
  ASHRAE 189.1-2009 ExtWall Mass ClimateZone 5, !- Name
  ,                                       !- Surface Rendering Name
  {259228df-d536-44b0-8d3c-9326d70873de}, !- Layer 1
  {375d20b9-3879-49fe-ba88-73e838f545b4}, !- Layer 2
  {666ca3e7-e800-45dc-9cc3-13bc838e37a8}, !- Layer 3
  {21053480-83a1-43e3-93f4-39421d130cb1}; !- Layer 4

OS:StandardsInformation:Construction,
  {941c867a-aad7-42ad-a7d2-ee67f4cf6462}, !- Handle
  {dc67ed6d-8d73-4b2e-8906-7b56f18b74a6}, !- Construction Name
  ExteriorWall,                           !- Intended Surface Type
  Mass;                                   !- Standards Construction Type

OS:Material,
  {666ca3e7-e800-45dc-9cc3-13bc838e37a8}, !- Handle
  Wall Insulation [40],                   !- Name
  MediumRough,                            !- Roughness
  0.0793999999999999,                     !- Thickness {m}
  0.0432,                                 !- Conductivity {W/m-K}
  91,                                     !- Density {kg/m3}
  836.999999999999,                       !- Specific Heat {J/kg-K}
  0.9,                                    !- Thermal Absorptance
  0.5,                                    !- Solar Absorptance
  0.5;                                    !- Visible Absorptance

OS:Construction,
  {7b95635c-b2d3-4b49-b6e8-b0920607f9bb}, !- Handle
  ASHRAE 189.1-2009 ExtWall Mass ClimateZone 6, !- Name
  ,                                       !- Surface Rendering Name
  {259228df-d536-44b0-8d3c-9326d70873de}, !- Layer 1
  {375d20b9-3879-49fe-ba88-73e838f545b4}, !- Layer 2
  {7d1f1756-c57f-4d04-bf67-f07427435ecb}, !- Layer 3
  {21053480-83a1-43e3-93f4-39421d130cb1}; !- Layer 4

OS:StandardsInformation:Construction,
  {23913e10-c65d-47a4-9f18-c96a9d911241}, !- Handle
  {7b95635c-b2d3-4b49-b6e8-b0920607f9bb}, !- Construction Name
  ExteriorWall,                           !- Intended Surface Type
  Mass;                                   !- Standards Construction Type

OS:Material,
  {7d1f1756-c57f-4d04-bf67-f07427435ecb}, !- Handle
  Wall Insulation [42],                   !- Name
  MediumRough,                            !- Roughness
  0.0913999999999999,                     !- Thickness {m}
  0.0432,                                 !- Conductivity {W/m-K}
  91,                                     !- Density {kg/m3}
  836.999999999999,                       !- Specific Heat {J/kg-K}
  0.9,                                    !- Thermal Absorptance
  0.5,                                    !- Solar Absorptance
  0.5;                                    !- Visible Absorptance

OS:Construction,
  {cc205e75-2c81-4f6d-82f0-a82f9f79f8a5}, !- Handle
  ASHRAE 189.1-2009 ExtWall Mass ClimateZone 7-8, !- Name
  ,                                       !- Surface Rendering Name
  {259228df-d536-44b0-8d3c-9326d70873de}, !- Layer 1
  {375d20b9-3879-49fe-ba88-73e838f545b4}, !- Layer 2
  {e662422c-0278-4548-aae4-d45ed4daa72f}, !- Layer 3
  {21053480-83a1-43e3-93f4-39421d130cb1}; !- Layer 4

OS:StandardsInformation:Construction,
  {0463cb37-355c-422c-8c8c-501a4d878c52}, !- Handle
  {cc205e75-2c81-4f6d-82f0-a82f9f79f8a5}, !- Construction Name
  ExteriorWall,                           !- Intended Surface Type
  Mass;                                   !- Standards Construction Type

OS:Material,
  {e662422c-0278-4548-aae4-d45ed4daa72f}, !- Handle
  Wall Insulation [44],                   !- Name
  MediumRough,                            !- Roughness
  0.1104,                                 !- Thickness {m}
  0.0432,                                 !- Conductivity {W/m-K}
  91,                                     !- Density {kg/m3}
  836.999999999999,                       !- Specific Heat {J/kg-K}
  0.9,                                    !- Thermal Absorptance
  0.5,                                    !- Solar Absorptance
  0.5;                                    !- Visible Absorptance

OS:Construction,
  {d82a868c-b82d-456d-b876-ccdb6cfad2d3}, !- Handle
  ASHRAE 189.1-2009 ExtWall Mass ClimateZone alt-res 1, !- Name
  ,                                       !- Surface Rendering Name
  {259228df-d536-44b0-8d3c-9326d70873de}, !- Layer 1
  {375d20b9-3879-49fe-ba88-73e838f545b4}, !- Layer 2
  {bc8b9f18-039d-40a1-bfa4-3bc5a27e7003}, !- Layer 3
  {21053480-83a1-43e3-93f4-39421d130cb1}; !- Layer 4

OS:StandardsInformation:Construction,
  {15030117-8a15-4d01-ab4f-51c03b1de387}, !- Handle
  {d82a868c-b82d-456d-b876-ccdb6cfad2d3}, !- Construction Name
  ExteriorWall,                           !- Intended Surface Type
  Mass;                                   !- Standards Construction Type

OS:Construction,
  {48f01aad-de82-4174-8ba4-78f7f0bc601d}, !- Handle
  ASHRAE 189.1-2009 ExtWall Mass ClimateZone alt-res 2, !- Name
  ,                                       !- Surface Rendering Name
  {259228df-d536-44b0-8d3c-9326d70873de}, !- Layer 1
  {375d20b9-3879-49fe-ba88-73e838f545b4}, !- Layer 2
  {17cf9a13-c1e6-4dc4-a0d0-3e6f29eba96e}, !- Layer 3
  {21053480-83a1-43e3-93f4-39421d130cb1}; !- Layer 4

OS:StandardsInformation:Construction,
  {d3503c7b-b4aa-441d-8e43-3d2511d90848}, !- Handle
  {48f01aad-de82-4174-8ba4-78f7f0bc601d}, !- Construction Name
  ExteriorWall,                           !- Intended Surface Type
  Mass;                                   !- Standards Construction Type

OS:Construction,
  {af751e4d-732a-4c2a-9df5-62d455ae014b}, !- Handle
  ASHRAE 189.1-2009 ExtWall Mass ClimateZone alt-res 3, !- Name
  ,                                       !- Surface Rendering Name
  {259228df-d536-44b0-8d3c-9326d70873de}, !- Layer 1
  {375d20b9-3879-49fe-ba88-73e838f545b4}, !- Layer 2
  {933b19bd-1e2d-4805-a46f-d39adf08d3b6}, !- Layer 3
  {21053480-83a1-43e3-93f4-39421d130cb1}; !- Layer 4

OS:StandardsInformation:Construction,
  {8b763157-c2e5-47e9-9fb0-a1017419e0b2}, !- Handle
  {af751e4d-732a-4c2a-9df5-62d455ae014b}, !- Construction Name
  ExteriorWall,                           !- Intended Surface Type
  Mass;                                   !- Standards Construction Type

OS:Construction,
  {d181feb1-329f-48b9-b366-99db1e72f1c1}, !- Handle
  ASHRAE 189.1-2009 ExtWall Mass ClimateZone alt-res 4, !- Name
  ,                                       !- Surface Rendering Name
  {259228df-d536-44b0-8d3c-9326d70873de}, !- Layer 1
  {375d20b9-3879-49fe-ba88-73e838f545b4}, !- Layer 2
  {666ca3e7-e800-45dc-9cc3-13bc838e37a8}, !- Layer 3
  {21053480-83a1-43e3-93f4-39421d130cb1}; !- Layer 4

OS:StandardsInformation:Construction,
  {d39a0755-350d-4df9-a9f6-d468598fd747}, !- Handle
  {d181feb1-329f-48b9-b366-99db1e72f1c1}, !- Construction Name
  ExteriorWall,                           !- Intended Surface Type
  Mass;                                   !- Standards Construction Type

OS:Construction,
  {f549646e-4852-4cea-a75b-869ec6947cee}, !- Handle
  ASHRAE 189.1-2009 ExtWall Mass ClimateZone alt-res 5, !- Name
  ,                                       !- Surface Rendering Name
  {259228df-d536-44b0-8d3c-9326d70873de}, !- Layer 1
  {375d20b9-3879-49fe-ba88-73e838f545b4}, !- Layer 2
  {7d1f1756-c57f-4d04-bf67-f07427435ecb}, !- Layer 3
  {21053480-83a1-43e3-93f4-39421d130cb1}; !- Layer 4

OS:StandardsInformation:Construction,
  {8fd7e44f-5f08-4c76-8b9b-dcd62bfe829f}, !- Handle
  {f549646e-4852-4cea-a75b-869ec6947cee}, !- Construction Name
  ExteriorWall,                           !- Intended Surface Type
  Mass;                                   !- Standards Construction Type

OS:Construction,
  {83468c75-fb08-40e7-9ff8-7a3f51dfbbc2}, !- Handle
  ASHRAE 189.1-2009 ExtWall Mass ClimateZone alt-res 6, !- Name
  ,                                       !- Surface Rendering Name
  {259228df-d536-44b0-8d3c-9326d70873de}, !- Layer 1
  {375d20b9-3879-49fe-ba88-73e838f545b4}, !- Layer 2
  {e662422c-0278-4548-aae4-d45ed4daa72f}, !- Layer 3
  {21053480-83a1-43e3-93f4-39421d130cb1}; !- Layer 4

OS:StandardsInformation:Construction,
  {90808a23-afab-43b0-ac7a-302dc7c89133}, !- Handle
  {83468c75-fb08-40e7-9ff8-7a3f51dfbbc2}, !- Construction Name
  ExteriorWall,                           !- Intended Surface Type
  Mass;                                   !- Standards Construction Type

OS:Construction,
  {1b4635e8-2166-4f67-8e94-f0184a642762}, !- Handle
  ASHRAE 189.1-2009 ExtWall Mass ClimateZone alt-res 7, !- Name
  ,                                       !- Surface Rendering Name
  {259228df-d536-44b0-8d3c-9326d70873de}, !- Layer 1
  {375d20b9-3879-49fe-ba88-73e838f545b4}, !- Layer 2
  {e662422c-0278-4548-aae4-d45ed4daa72f}, !- Layer 3
  {21053480-83a1-43e3-93f4-39421d130cb1}; !- Layer 4

OS:StandardsInformation:Construction,
  {18808d8d-dc98-477b-88fc-a4220608ef34}, !- Handle
  {1b4635e8-2166-4f67-8e94-f0184a642762}, !- Construction Name
  ExteriorWall,                           !- Intended Surface Type
  Mass;                                   !- Standards Construction Type

OS:Construction,
  {9632129a-d2ff-4f74-8a51-59f312fb3157}, !- Handle
  ASHRAE 189.1-2009 ExtWall Mass ClimateZone alt-res 8, !- Name