
OS:Version,
  {29468092-bf4f-4f2b-a9ba-73e81731a5e2}, !- Handle
  1.2.3;                                  !- Version Identifier

OS:Construction,
  {567d00ef-d694-4722-aa94-32ed5e2908ce}, !- Handle
  ASHRAE 189.1-2009 AtticFloor ClimateZone 1-8, !- Name
  ,                                       !- Surface Rendering Name
  {f9418fbb-a769-45f5-a29a-b2e023c1e845}, !- Layer 1
  {37e25bfc-46e8-4f2e-86f7-51c31e50bbdf}, !- Layer 2
  {f9418fbb-a769-45f5-a29a-b2e023c1e845}; !- Layer 3

OS:StandardsInformation:Construction,
  {97696463-f010-4ed9-bd17-9e0c875edec0}, !- Handle
  {567d00ef-d694-4722-aa94-32ed5e2908ce}, !- Construction Name
  AtticFloor,                             !- Intended Surface Type
  ASHRAE 189.1-2009;                      !- Standards Construction Type

OS:Material,
  {f9418fbb-a769-45f5-a29a-b2e023c1e845}, !- Handle
  1/2IN Gypsum,                           !- Name
  Smooth,                                 !- Roughness
  0.0127,                                 !- Thickness {m}
  0.16,                                   !- Conductivity {W/m-K}
  784.9,                                  !- Density {kg/m3}
  830.000000000001,                       !- Specific Heat {J/kg-K}
  0.9,                                    !- Thermal Absorptance
  0.92,                                   !- Solar Absorptance
  0.92;                                   !- Visible Absorptance

OS:Material,
  {37e25bfc-46e8-4f2e-86f7-51c31e50bbdf}, !- Handle
  AtticFloor Insulation,                  !- Name
  MediumRough,                            !- Roughness
  0.2379,                                 !- Thickness {m}
  0.049,                                  !- Conductivity {W/m-K}
  265,                                    !- Density {kg/m3}
  836.800000000001,                       !- Specific Heat {J/kg-K}
  0.9,                                    !- Thermal Absorptance
  0.7,                                    !- Solar Absorptance
  0.7;                                    !- Visible Absorptance

OS:Construction,
  {5d8cd36c-2e2f-43b5-a01c-637634a0d4a4}, !- Handle
  ASHRAE 189.1-2009 ExtRoof IEAD ClimateZone 1, !- Name
  ,                                       !- Surface Rendering Name
  {9cdd3a4b-0934-4bd7-8045-a9018e6cee55}, !- Layer 1
  {c1cd6782-6747-464c-a18a-d588738d1a64}, !- Layer 2
  {06ce8911-d8cb-48d3-ac01-d6afac1f2a65}; !- Layer 3

OS:StandardsInformation:Construction,
  {b2b7e6ec-2c86-4353-ba77-d34e58e299d8}, !- Handle
  {5d8cd36c-2e2f-43b5-a01c-637634a0d4a4}, !- Construction Name
  ExteriorRoof,                           !- Intended Surface Type
  ASHRAE 189.1-2009;                      !- Standards Construction Type

OS:Material,
  {9cdd3a4b-0934-4bd7-8045-a9018e6cee55}, !- Handle
  Roof Membrane,                          !- Name
  VeryRough,                              !- Roughness
  0.0095,                                 !- Thickness {m}
  0.16,                                   !- Conductivity {W/m-K}
  1121.29,                                !- Density {kg/m3}
  1460,                                   !- Specific Heat {J/kg-K}
  0.9,                                    !- Thermal Absorptance
  0.7,                                    !- Solar Absorptance
  0.7;                                    !- Visible Absorptance

OS:Material,
  {c1cd6782-6747-464c-a18a-d588738d1a64}, !- Handle
  Roof Insulation [18],                   !- Name
  MediumRough,                            !- Roughness
  0.1693,                                 !- Thickness {m}
  0.049,                                  !- Conductivity {W/m-K}
  265,                                    !- Density {kg/m3}
  836.800000000001,                       !- Specific Heat {J/kg-K}
  0.9,                                    !- Thermal Absorptance
  0.7,                                    !- Solar Absorptance
  0.7;                                    !- Visible Absorptance

OS:Material,
  {06ce8911-d8cb-48d3-ac01-d6afac1f2a65}, !- Handle
  Metal Decking,                          !- Name
  MediumSmooth,                           !- Roughness
  0.0015,                                 !- Thickness {m}
  45.006,                                 !- Conductivity {W/m-K}
  7680,                                   !- Density {kg/m3}
  418.4,                                  !- Specific Heat {J/kg-K}
  0.9,                                    !- Thermal Absorptance
  0.7,                                    !- Solar Absorptance
  0.3;                                    !- Visible Absorptance

OS:Construction,
  {cb2de6f1-dacd-4ff8-853f-b43b061587f0}, !- Handle
  ASHRAE 189.1-2009 ExtRoof IEAD ClimateZone 2-5, !- Name
  ,                                       !- Surface Rendering Name
  {9cdd3a4b-0934-4bd7-8045-a9018e6cee55}, !- Layer 1
  {f82cf4b1-d13b-4e85-a63a-8fdbc1d400c9}, !- Layer 2
  {06ce8911-d8cb-48d3-ac01-d6afac1f2a65}; !- Layer 3

OS:StandardsInformation:Construction,
  {772b08c2-f3a1-491b-861f-9b0c3efc7ccb}, !- Handle
  {cb2de6f1-dacd-4ff8-853f-b43b061587f0}, !- Construction Name
  ExteriorRoof,                           !- Intended Surface Type
  ASHRAE 189.1-2009;                      !- Standards Construction Type

OS:Material,
  {f82cf4b1-d13b-4e85-a63a-8fdbc1d400c9}, !- Handle
  Roof Insulation [21],                   !- Name
  MediumRough,                            !- Roughness
  0.2105,                                 !- Thickness {m}
  0.049,                                  !- Conductivity {W/m-K}
  265,                                    !- Density {kg/m3}
  836.800000000001,                       !- Specific Heat {J/kg-K}
  0.9,                                    !- Thermal Absorptance
  0.7,                                    !- Solar Absorptance
  0.7;                                    !- Visible Absorptance

OS:Construction,
  {07528081-af3d-4df5-ae48-86571d7d8c0e}, !- Handle
  ASHRAE 189.1-2009 ExtRoof IEAD ClimateZone 6, !- Name
  ,                                       !- Surface Rendering Name
  {9cdd3a4b-0934-4bd7-8045-a9018e6cee55}, !- Layer 1
  {9bb2ffc5-8a65-4896-a79e-658456329159}, !- Layer 2
  {06ce8911-d8cb-48d3-ac01-d6afac1f2a65}; !- Layer 3

OS:StandardsInformation:Construction,
  {bdcb466d-ad98-4ea9-a2d5-9515cc230129}, !- Handle
  {07528081-af3d-4df5-ae48-86571d7d8c0e}, !- Construction Name
  ExteriorRoof,                           !- Intended Surface Type
  ASHRAE 189.1-2009;                      !- Standards Construction Type

OS:Material,
  {9bb2ffc5-8a65-4896-a79e-658456329159}, !- Handle
  Roof Insulation [24],                   !- Name
  MediumRough,                            !- Roughness
  0.260100000000001,                      !- Thickness {m}
  0.049,                                  !- Conductivity {W/m-K}
  265,                                    !- Density {kg/m3}
  836.800000000001,                       !- Specific Heat {J/kg-K}
  0.9,                                    !- Thermal Absorptance
  0.7,                                    !- Solar Absorptance
  0.7;                                    !- Visible Absorptance

OS:Construction,
  {ab50d56d-0857-4cf1-8682-4856fcf6e855}, !- Handle
  ASHRAE 189.1-2009 ExtRoof IEAD ClimateZone 7-8, !- Name
  ,                                       !- Surface Rendering Name
  {9cdd3a4b-0934-4bd7-8045-a9018e6cee55}, !- Layer 1
  {100b7f95-5bef-4e4a-80cd-e65782e22d43}, !- Layer 2
  {06ce8911-d8cb-48d3-ac01-d6afac1f2a65}; !- Layer 3

OS:StandardsInformation:Construction,
  {d098cfd6-c47e-4620-a333-93cf1813133c}, !- Handle
  {ab50d56d-0857-4cf1-8682-4856fcf6e855}, !- Construction Name
  ExteriorRoof,                           !- Intended Surface Type
  ASHRAE 189.1-2009;                      !- Standards Construction Type

OS:Material,
  {100b7f95-5bef-4e4a-80cd-e65782e22d43}, !- Handle
  Roof Insulation [26],                   !- Name
  MediumRough,                            !- Roughness
  0.2941,                                 !- Thickness {m}
  0.049,                                  !- Conductivity {W/m-K}
  265,                                    !- Density {kg/m3}
  836.800000000001,                       !- Specific Heat {J/kg-K}
  0.9,                                    !- Thermal Absorptance
  0.7,                                    !- Solar Absorptance
  0.7;                                    !- Visible Absorptance

OS:Construction,
  {507f3825-6729-4697-919d-a7145fff9225}, !- Handle
  ASHRAE 189.1-2009 ExtRoof Metal ClimateZone 1, !- Name
  ,                                       !- Surface Rendering Name
  {db4c6edb-5cd0-48e7-be1a-a94f28bb9002}, !- Layer 1
  {2c5958c4-f37b-4267-b5e6-d83058f18723}; !- Layer 2

OS:StandardsInformation:Construction,
  {724cef58-2c39-4905-9241-9575d4b38506}, !- Handle
  {507f3825-6729-4697-919d-a7145fff9225}, !- Construction Name
  ExteriorRoof,                           !- Intended Surface Type
  ASHRAE 189.1-2009;                      !- Standards Construction Type

OS:Material,
  {db4c6edb-5cd0-48e7-be1a-a94f28bb9002}, !- Handle
  Metal Roofing,                          !- Name
  MediumSmooth,                           !- Roughness
  0.0015,                                 !- Thickness {m}
  45.006,                                 !- Conductivity {W/m-K}
  7680,                                   !- Density {kg/m3}
  418.4,                                  !- Specific Heat {J/kg-K}
  0.9,                                    !- Thermal Absorptance
  0.3,                                    !- Solar Absorptance
  0.3;                                    !- Visible Absorptance

OS:Material,
  {2c5958c4-f37b-4267-b5e6-d83058f18723}, !- Handle
  Roof Insulation [19],                   !- Name
  MediumRough,                            !- Roughness
  0.1868,                                 !- Thickness {m}
  0.049,                                  !- Conductivity {W/m-K}
  265,                                    !- Density {kg/m3}
  836.800000000001,                       !- Specific Heat {J/kg-K}
  0.9,                                    !- Thermal Absorptance
  0.7,                                    !- Solar Absorptance
  0.7;                                    !- Visible Absorptance

OS:Construction,
  {6d6da452-0753-405b-82fd-6a22155da794}, !- Handle
  ASHRAE 189.1-2009 ExtRoof Metal ClimateZone 2-5, !- Name
  ,                                       !- Surface Rendering Name
  {db4c6edb-5cd0-48e7-be1a-a94f28bb9002}, !- Layer 1
  {6d3b3358-0aca-4fbf-9993-0dfe371acee9}; !- Layer 2

OS:StandardsInformation:Construction,
  {1a7c1243-7c87-480b-8f32-927d147ea2d2}, !- Handle
  {6d6da452-0753-405b-82fd-6a22155da794}, !- Construction Name
  ExteriorRoof,                           !- Intended Surface Type
  ASHRAE 189.1-2009;                      !- Standards Construction Type

OS:Material,
  {6d3b3358-0aca-4fbf-9993-0dfe371acee9}, !- Handle
  Roof Insulation [22],                   !- Name
  MediumRough,                            !- Roughness
  0.2358,                                 !- Thickness {m}
  0.049,                                  !- Conductivity {W/m-K}
  265,                                    !- Density {kg/m3}
  836.800000000001,                       !- Specific Heat {J/kg-K}
  0.9,                                    !- Thermal Absorptance
  0.7,                                    !- Solar Absorptance
  0.7;                                    !- Visible Absorptance

OS:Construction,
  {7c2d4a99-9ef0-4f2d-bd7b-5a4857fa48ad}, !- Handle
  ASHRAE 189.1-2009 ExtRoof Metal ClimateZone 6, !- Name
  ,                                       !- Surface Rendering Name
  {db4c6edb-5cd0-48e7-be1a-a94f28bb9002}, !- Layer 1
  {60a2a86f-08e9-4aa6-9312-b4f0b64576df}; !- Layer 2

OS:StandardsInformation:Construction,
  {f654c78d-9761-4aa8-ad2d-574d385a7eb2}, !- Handle
  {7c2d4a99-9ef0-4f2d-bd7b-5a4857fa48ad}, !- Construction Name
  ExteriorRoof,                           !- Intended Surface Type
  ASHRAE 189.1-2009;                      !- Standards Construction Type

OS:Material,
  {60a2a86f-08e9-4aa6-9312-b4f0b64576df}, !- Handle
  Roof Insulation [25],                   !- Name
  MediumRough,                            !- Roughness
  0.263,                                  !- Thickness {m}
  0.049,                                  !- Conductivity {W/m-K}
  265,                                    !- Density {kg/m3}
  836.800000000001,                       !- Specific Heat {J/kg-K}
  0.9,                                    !- Thermal Absorptance
  0.7,                                    !- Solar Absorptance
  0.7;                                    !- Visible Absorptance

OS:Construction,
  {01b8d144-2558-49d8-a867-5259e69ff85e}, !- Handle
  ASHRAE 189.1-2009 ExtRoof Metal ClimateZone 7-8, !- Name
  ,                                       !- Surface Rendering Name
  {db4c6edb-5cd0-48e7-be1a-a94f28bb9002}, !- Layer 1
  {562df27b-e5a9-4d82-9896-fd3d21b9cc2a}; !- Layer 2

OS:StandardsInformation:Construction,
  {73fb0776-063b-4068-979f-ba108e74af05}, !- Handle
  {01b8d144-2558-49d8-a867-5259e69ff85e}, !- Construction Name
  ExteriorRoof,                           !- Intended Surface Type
  ASHRAE 189.1-2009;                      !- Standards Construction Type

OS:Material,
  {562df27b-e5a9-4d82-9896-fd3d21b9cc2a}, !- Handle
  Roof Insulation [27],                   !- Name
  MediumRough,                            !- Roughness
  0.297000000000001,                      !- Thickness {m}
  0.049,                                  !- Conductivity {W/m-K}
  265,                                    !- Density {kg/m3}
  836.800000000001,                       !- Specific Heat {J/kg-K}
  0.9,                                    !- Thermal Absorptance
  0.7,                                    !- Solar Absorptance
  0.7;                                    !- Visible Absorptance

OS:Construction,
  {2b1a3621-750f-461f-bda9-949b4ac002bd}, !- Handle
  ASHRAE 189.1-2009 ExtWall Mass ClimateZone 1, !- Name
  ,                                       !- Surface Rendering Name
  {2f7d8f22-29fd-4b91-ab05-87bbccb0cc03}, !- Layer 1
  {8d6c3e71-f8ee-4880-a19a-218de008bd35}, !- Layer 2
  {421e3d2f-6837-4fca-8998-89f1bb08a7d8}, !- Layer 3
  {f9418fbb-a769-45f5-a29a-b2e023c1e845}; !- Layer 4

OS:StandardsInformation:Construction,
  {c7491e37-5271-4ab9-8e80-41d00d7e38cc}, !- Handle
  {2b1a3621-750f-461f-bda9-949b4ac002bd}, !- Construction Name
  ExteriorWall,                           !- Intended Surface Type
  ASHRAE 189.1-2009;                      !- Standards Construction Type

OS:Material,
  {2f7d8f22-29fd-4b91-ab05-87bbccb0cc03}, !- Handle
  1IN Stucco,                             !- Name
  Smooth,                                 !- Roughness
  0.0253,                                 !- Thickness {m}
  0.691799999999999,                      !- Conductivity {W/m-K}
  1858,                                   !- Density {kg/m3}
  836.999999999999,                       !- Specific Heat {J/kg-K}
  0.9,                                    !- Thermal Absorptance
  0.92,                                   !- Solar Absorptance
  0.92;                                   !- Visible Absorptance

OS:Material,
  {8d6c3e71-f8ee-4880-a19a-218de008bd35}, !- Handle
  8IN Concrete HW,                        !- Name
  MediumRough,                            !- Roughness
  0.2033,                                 !- Thickness {m}
  1.72959999999999,                       !- Conductivity {W/m-K}
  2242.99999999999,                       !- Density {kg/m3}
  836.999999999999,                       !- Specific Heat {J/kg-K}
  0.9,                                    !- Thermal Absorptance
  0.65,                                   !- Solar Absorptance
  0.65;                                   !- Visible Absorptance

OS:Material,
  {421e3d2f-6837-4fca-8998-89f1bb08a7d8}, !- Handle
  Wall Insulation [31],                   !- Name
  MediumRough,                            !- Roughness
  0.0337000000000001,                     !- Thickness {m}
  0.0432,                                 !- Conductivity {W/m-K}
  91,                                     !- Density {kg/m3}
  836.999999999999,                       !- Specific Heat {J/kg-K}
  0.9,                                    !- Thermal Absorptance
  0.5,                                    !- Solar Absorptance
  0.5;                                    !- Visible Absorptance

OS:Construction,
  {f4892588-cb14-468e-a2ea-52e39f2f5d72}, !- Handle
  ASHRAE 189.1-2009 ExtWall Mass ClimateZone 2, !- Name
  ,                                       !- Surface Rendering Name
  {2f7d8f22-29fd-4b91-ab05-87bbccb0cc03}, !- Layer 1
  {8d6c3e71-f8ee-4880-a19a-218de008bd35}, !- Layer 2
  {8497f19c-e2b7-469c-add5-f2c09bebeb81}, !- Layer 3
  {f9418fbb-a769-45f5-a29a-b2e023c1e845}; !- Layer 4

OS:StandardsInformation:Construction,
  {254a3255-19b5-4dd5-99f1-020f3cce4dec}, !- Handle
  {f4892588-cb14-468e-a2ea-52e39f2f5d72}, !- Construction Name
  ExteriorWall,                           !- Intended Surface Type
  ASHRAE 189.1-2009;                      !- Standards Construction Type

OS:Material,
  {8497f19c-e2b7-469c-add5-f2c09bebeb81}, !- Handle
  Wall Insulation [35],                   !- Name
  MediumRough,                            !- Roughness
  0.0452,                                 !- Thickness {m}
  0.0432,                                 !- Conductivity {W/m-K}
  91,                                     !- Density {kg/m3}
  836.999999999999,                       !- Specific Heat {J/kg-K}
  0.9,                                    !- Thermal Absorptance
  0.5,                                    !- Solar Absorptance
  0.5;                                    !- Visible Absorptance

OS:Construction,
  {939943a3-f351-4087-b40e-4ed8c9eab855}, !- Handle
  ASHRAE 189.1-2009 ExtWall Mass ClimateZone 3, !- Name
  ,                                       !- Surface Rendering Name
  {2f7d8f22-29fd-4b91-ab05-87bbccb0cc03}, !- Layer 1
  {8d6c3e71-f8ee-4880-a19a-218de008bd35}, !- Layer 2
  {43a486fc-dcf0-4384-b86a-94572a63a8bb}, !- Layer 3
  {f9418fbb-a769-45f5-a29a-b2e023c1e845}; !- Layer 4

OS:StandardsInformation:Construction,
  {908f8eef-5218-4a1b-95db-177ca1f4bdeb}, !- Handle
  {939943a3-f351-4087-b40e-4ed8c9eab855}, !- Construction Name
  ExteriorWall,                           !- Intended Surface Type
  ASHRAE 189.1-2009;                      !- Standards Construction Type

OS:Material,
  {43a486fc-dcf0-4384-b86a-94572a63a8bb}, !- Handle
  Wall Insulation [36],                   !- Name
  MediumRough,                            !- Roughness
  0.0565999999999999,                     !- Thickness {m}
  0.0432,                                 !- Conductivity {W/m-K}
  91,                                     !- Density {kg/m3}
  836.999999999999,                       !- Specific Heat {J/kg-K}
  0.9,                                    !- Thermal Absorptance
  0.5,                                    !- Solar Absorptance
  0.5;                                    !- Visible Absorptance

OS:Construction,
  {7dd05534-925f-4076-b09a-be6febc6efc1}, !- Handle
  ASHRAE 189.1-2009 ExtWall Mass ClimateZone 4, !- Name
  ,                                       !- Surface Rendering Name
  {2f7d8f22-29fd-4b91-ab05-87bbccb0cc03}, !- Layer 1
  {8d6c3e71-f8ee-4880-a19a-218de008bd35}, !- Layer 2
  {e3047df2-2370-43c2-a403-cb3ae4a608ce}, !- Layer 3
  {f9418fbb-a769-45f5-a29a-b2e023c1e845}; !- Layer 4

OS:StandardsInformation:Construction,
  {3aa2ba01-140f-46df-b4ee-55b75afd3e64}, !- Handle
  {7dd05534-925f-4076-b09a-be6febc6efc1}, !- Construction Name
  ExteriorWall,                           !- Intended Surface Type
  ASHRAE 189.1-2009;                      !- Standards Construction Type

OS:Material,
  {e3047df2-2370-43c2-a403-cb3ae4a608ce}, !- Handle
  Wall Insulation [37],                   !- Name
  MediumRough,                            !- Roughness
  0.0680999999999999,                     !- Thickness {m}
  0.0432,                                 !- Conductivity {W/m-K}
  91,                                     !- Density {kg/m3}
  836.999999999999,                       !- Specific Heat {J/kg-K}
  0.9,                                    !- Thermal Absorptance
  0.5,                                    !- Solar Absorptance
  0.5;                                    !- Visible Absorptance

OS:Construction,
  {1a76ee0d-c34f-4ee5-9b70-82d995e9c527}, !- Handle
  ASHRAE 189.1-2009 ExtWall Mass ClimateZone 5, !- Name
  ,                                       !- Surface Rendering Name
  {2f7d8f22-29fd-4b91-ab05-87bbccb0cc03}, !- Layer 1
  {8d6c3e71-f8ee-4880-a19a-218de008bd35}, !- Layer 2
  {8751583b-c5af-4331-a9f7-b6313190719e}, !- Layer 3
  {f9418fbb-a769-45f5-a29a-b2e023c1e845}; !- Layer 4

OS:StandardsInformation:Construction,
  {fbba7f57-235a-4072-b31d-3cc5ffa5f364}, !- Handle
  {1a76ee0d-c34f-4ee5-9b70-82d995e9c527}, !- Construction Name
  ExteriorWall,                           !- Intended Surface Type
  ASHRAE 189.1-2009;                      !- Standards Construction Type

OS:Material,
  {8751583b-c5af-4331-a9f7-b6313190719e}, !- Handle
  Wall Insulation [40],                   !- Name
  MediumRough,                            !- Roughness
  0.0793999999999999,                     !- Thickness {m}
  0.0432,                                 !- Conductivity {W/m-K}
  91,                                     !- Density {kg/m3}
  836.999999999999,                       !- Specific Heat {J/kg-K}
  0.9,                                    !- Thermal Absorptance
  0.5,                                    !- Solar Absorptance
  0.5;                                    !- Visible Absorptance

OS:Construction,
  {01edfa7f-bb38-4aef-83df-c722220ce3c2}, !- Handle
  ASHRAE 189.1-2009 ExtWall Mass ClimateZone 6, !- Name
  ,                                       !- Surface Rendering Name
  {2f7d8f22-29fd-4b91-ab05-87bbccb0cc03}, !- Layer 1
  {8d6c3e71-f8ee-4880-a19a-218de008bd35}, !- Layer 2
  {0ffc817a-c3c2-452c-937d-0e43c74f529d}, !- Layer 3
  {f9418fbb-a769-45f5-a29a-b2e023c1e845}; !- Layer 4

OS:StandardsInformation:Construction,
  {a2f52c3d-6ad4-44b7-87c4-7849262e0857}, !- Handle
  {01edfa7f-bb38-4aef-83df-c722220ce3c2}, !- Construction Name
  ExteriorWall,                           !- Intended Surface Type
  ASHRAE 189.1-2009;                      !- Standards Construction Type

OS:Material,
  {0ffc817a-c3c2-452c-937d-0e43c74f529d}, !- Handle
  Wall Insulation [42],                   !- Name
  MediumRough,                            !- Roughness
  0.0913999999999999,                     !- Thickness {m}
  0.0432,                                 !- Conductivity {W/m-K}
  91,                                     !- Density {kg/m3}
  836.999999999999,                       !- Specific Heat {J/kg-K}
  0.9,                                    !- Thermal Absorptance
  0.5,                                    !- Solar Absorptance
  0.5;                                    !- Visible Absorptance

OS:Construction,
  {cf0ae699-c112-4c2d-96d6-e606bce69124}, !- Handle
  ASHRAE 189.1-2009 ExtWall Mass ClimateZone 7-8, !- Name
  ,                                       !- Surface Rendering Name
  {2f7d8f22-29fd-4b91-ab05-87bbccb0cc03}, !- Layer 1
  {8d6c3e71-f8ee-4880-a19a-218de008bd35}, !- Layer 2
  {8502497c-d34c-443c-9b9e-d3f0445f804f}, !- Layer 3
  {f9418fbb-a769-45f5-a29a-b2e023c1e845}; !- Layer 4

OS:StandardsInformation:Construction,
  {0fdc4ec7-70ca-475b-8c15-bd227a4eb216}, !- Handle
  {cf0ae699-c112-4c2d-96d6-e606bce69124}, !- Construction Name
  ExteriorWall,                           !- Intended Surface Type
  ASHRAE 189.1-2009;                      !- Standards Construction Type

OS:Material,
  {8502497c-d34c-443c-9b9e-d3f0445f804f}, !- Handle
  Wall Insulation [44],                   !- Name
  MediumRough,                            !- Roughness
  0.1104,                                 !- Thickness {m}
  0.0432,                                 !- Conductivity {W/m-K}
  91,                                     !- Density {kg/m3}
  836.999999999999,                       !- Specific Heat {J/kg-K}
  0.9,                                    !- Thermal Absorptance
  0.5,                                    !- Solar Absorptance
  0.5;                                    !- Visible Absorptance

OS:Construction,
  {b9692701-deb4-40cd-abdc-9f7b82b6d225}, !- Handle
  ASHRAE 189.1-2009 ExtWall Mass ClimateZone alt-res 1, !- Name
  ,                                       !- Surface Rendering Name
  {2f7d8f22-29fd-4b91-ab05-87bbccb0cc03}, !- Layer 1
  {8d6c3e71-f8ee-4880-a19a-218de008bd35}, !- Layer 2
  {8497f19c-e2b7-469c-add5-f2c09bebeb81}, !- Layer 3
  {f9418fbb-a769-45f5-a29a-b2e023c1e845}; !- Layer 4

OS:StandardsInformation:Construction,
  {8f605783-c443-4d98-b05e-1585ec26b804}, !- Handle
  {b9692701-deb4-40cd-abdc-9f7b82b6d225}, !- Construction Name
  ExteriorWall,                           !- Intended Surface Type
  ASHRAE 189.1-2009;                      !- Standards Construction Type

OS:Construction,
  {b16173aa-40ba-42d6-a850-e556a3e7328e}, !- Handle
  ASHRAE 189.1-2009 ExtWall Mass ClimateZone alt-res 2, !- Name
  ,                                       !- Surface Rendering Name
  {2f7d8f22-29fd-4b91-ab05-87bbccb0cc03}, !- Layer 1
  {8d6c3e71-f8ee-4880-a19a-218de008bd35}, !- Layer 2
  {43a486fc-dcf0-4384-b86a-94572a63a8bb}, !- Layer 3
  {f9418fbb-a769-45f5-a29a-b2e023c1e845}; !- Layer 4

OS:StandardsInformation:Construction,
  {be4fb70a-baf1-48f4-80c7-99341fcdb64a}, !- Handle
  {b16173aa-40ba-42d6-a850-e556a3e7328e}, !- Construction Name
  ExteriorWall,                           !- Intended Surface Type
  ASHRAE 189.1-2009;                      !- Standards Construction Type

OS:Construction,
  {2e7f38e7-d3c3-4bda-91dc-dff73e2867aa}, !- Handle
  ASHRAE 189.1-2009 ExtWall Mass ClimateZone alt-res 3, !- Name
  ,                                       !- Surface Rendering Name
  {2f7d8f22-29fd-4b91-ab05-87bbccb0cc03}, !- Layer 1
  {8d6c3e71-f8ee-4880-a19a-218de008bd35}, !- Layer 2
  {e3047df2-2370-43c2-a403-cb3ae4a608ce}, !- Layer 3
  {f9418fbb-a769-45f5-a29a-b2e023c1e845}; !- Layer 4

OS:StandardsInformation:Construction,
  {38a2a3b1-7ff3-4483-9ef5-0363e19f3fb6}, !- Handle
  {2e7f38e7-d3c3-4bda-91dc-dff73e2867aa}, !- Construction Name
  ExteriorWall,                           !- Intended Surface Type
  ASHRAE 189.1-2009;                      !- Standards Construction Type

OS:Construction,
  {693e59fe-d669-4c04-957f-965426307ada}, !- Handle
  ASHRAE 189.1-2009 ExtWall Mass ClimateZone alt-res 4, !- Name
  ,                                       !- Surface Rendering Name
  {2f7d8f22-29fd-4b91-ab05-87bbccb0cc03}, !- Layer 1
  {8d6c3e71-f8ee-4880-a19a-218de008bd35}, !- Layer 2
  {8751583b-c5af-4331-a9f7-b6313190719e}, !- Layer 3
  {f9418fbb-a769-45f5-a29a-b2e023c1e845}; !- Layer 4

OS:StandardsInformation:Construction,
  {2a57df6c-2fb5-4d09-8159-8eda0b1f86ce}, !- Handle
  {693e59fe-d669-4c04-957f-965426307ada}, !- Construction Name
  ExteriorWall,                           !- Intended Surface Type
  ASHRAE 189.1-2009;                      !- Standards Construction Type

OS:Construction,
  {c62e049e-dfd0-420e-b0d5-54e52cd42a48}, !- Handle
  ASHRAE 189.1-2009 ExtWall Mass ClimateZone alt-res 5, !- Name
  ,                                       !- Surface Rendering Name
  {2f7d8f22-29fd-4b91-ab05-87bbccb0cc03}, !- Layer 1
  {8d6c3e71-f8ee-4880-a19a-218de008bd35}, !- Layer 2
  {0ffc817a-c3c2-452c-937d-0e43c74f529d}, !- Layer 3
  {f9418fbb-a769-45f5-a29a-b2e023c1e845}; !- Layer 4

OS:StandardsInformation:Construction,
  {b18ebc29-c864-4755-adf8-fa694dc7e906}, !- Handle
  {c62e049e-dfd0-420e-b0d5-54e52cd42a48}, !- Construction Name
  ExteriorWall,                           !- Intended Surface Type
  ASHRAE 189.1-2009;                      !- Standards Construction Type

OS:Construction,
  {18f4012d-5d89-4934-acd0-f385b201f5b4}, !- Handle
  ASHRAE 189.1-2009 ExtWall Mass ClimateZone alt-res 6, !- Name
  ,                                       !- Surface Rendering Name
  {2f7d8f22-29fd-4b91-ab05-87bbccb0cc03}, !- Layer 1
  {8d6c3e71-f8ee-4880-a19a-218de008bd35}, !- Layer 2
  {8502497c-d34c-443c-9b9e-d3f0445f804f}, !- Layer 3
  {f9418fbb-a769-45f5-a29a-b2e023c1e845}; !- Layer 4

OS:StandardsInformation:Construction,
  {1246a6db-d5dd-4de0-b74d-57333555c21c}, !- Handle
  {18f4012d-5d89-4934-acd0-f385b201f5b4}, !- Construction Name
  ExteriorWall,                           !- Intended Surface Type
  ASHRAE 189.1-2009;                      !- Standards Construction Type

OS:Construction,
  {1abd6214-f796-4143-b59c-75af79e40ad1}, !- Handle
  ASHRAE 189.1-2009 ExtWall Mass ClimateZone alt-res 7, !- Name
  ,                                       !- Surface Rendering Name
  {2f7d8f22-29fd-4b91-ab05-87bbccb0cc03}, !- Layer 1
  {8d6c3e71-f8ee-4880-a19a-218de008bd35}, !- Layer 2
  {8502497c-d34c-443c-9b9e-d3f0445f804f}, !- Layer 3
  {f9418fbb-a769-45f5-a29a-b2e023c1e845}; !- Layer 4

OS:StandardsInformation:Construction,
  {8a3f07ac-d264-4c88-8816-db1c4af7f264}, !- Handle
  {1abd6214-f796-4143-b59c-75af79e40ad1}, !- Construction Name
  ExteriorWall,                           !- Intended Surface Type
  ASHRAE 189.1-2009;                      !- Standards Construction Type

OS:Construction,
  {037f41f4-effd-42a5-8a38-c52e1fb8254f}, !- Handle
  ASHRAE 189.1-2009 ExtWall Mass ClimateZone alt-res 8, !- Name