
OS:Version,
  {a1265418-721c-40ed-821c-de74dc9994ae}, !- Handle
  1.3.0;                                  !- Version Identifier

OS:Construction,
  {61dcbe3f-70c8-4b7d-8e13-e79a1548995d}, !- Handle
  ASHRAE 189.1-2009 AtticFloor ClimateZone 1-8, !- Name
  ,                                       !- Surface Rendering Name
  {819005f8-67a7-4d98-8282-be2eebad7704}, !- Layer 1
  {d0fb1e9f-6909-4dd0-a70c-9b78d96dbae6}, !- Layer 2
  {819005f8-67a7-4d98-8282-be2eebad7704}; !- Layer 3

OS:StandardsInformation:Construction,
  {ab2508ed-0a65-42d6-9934-c843ff26274f}, !- Handle
  {61dcbe3f-70c8-4b7d-8e13-e79a1548995d}, !- Construction Name
  AtticFloor,                             !- Intended Surface Type
  WoodFramed;                             !- Standards Construction Type

OS:Material,
  {819005f8-67a7-4d98-8282-be2eebad7704}, !- Handle
  1/2IN Gypsum,                           !- Name
  Smooth,                                 !- Roughness
  0.0127,                                 !- Thickness {m}
  0.16,                                   !- Conductivity {W/m-K}
  784.9,                                  !- Density {kg/m3}
  830.000000000001,                       !- Specific Heat {J/kg-K}
  0.9,                                    !- Thermal Absorptance
  0.92,                                   !- Solar Absorptance
  0.92;                                   !- Visible Absorptance

OS:Material,
  {d0fb1e9f-6909-4dd0-a70c-9b78d96dbae6}, !- Handle
  AtticFloor Insulation,                  !- Name
  MediumRough,                            !- Roughness
  0.2379,                                 !- Thickness {m}
  0.049,                                  !- Conductivity {W/m-K}
  265,                                    !- Density {kg/m3}
  836.800000000001,                       !- Specific Heat {J/kg-K}
  0.9,                                    !- Thermal Absorptance
  0.7,                                    !- Solar Absorptance
  0.7;                                    !- Visible Absorptance

OS:Construction,
  {2a571105-ff25-4d75-8571-cc3d22861795}, !- Handle
  ASHRAE 189.1-2009 ExtRoof IEAD ClimateZone 1, !- Name
  ,                                       !- Surface Rendering Name
  {b7a56cc1-6e0a-4f7b-8809-b2aad894bc5a}, !- Layer 1
  {15695b6e-4430-4c1d-8ca9-d35cfe132195}, !- Layer 2
  {5f7d4784-3e07-4e37-9dee-1a971a5d0d01}; !- Layer 3

OS:StandardsInformation:Construction,
  {4c3fbd71-cf7d-4a81-934f-a07a7f2082c3}, !- Handle
  {2a571105-ff25-4d75-8571-cc3d22861795}, !- Construction Name
  ExteriorRoof,                           !- Intended Surface Type
  IEAD;                                   !- Standards Construction Type

OS:Material,
  {b7a56cc1-6e0a-4f7b-8809-b2aad894bc5a}, !- Handle
  Roof Membrane,                          !- Name
  VeryRough,                              !- Roughness
  0.0095,                                 !- Thickness {m}
  0.16,                                   !- Conductivity {W/m-K}
  1121.29,                                !- Density {kg/m3}
  1460,                                   !- Specific Heat {J/kg-K}
  0.9,                                    !- Thermal Absorptance
  0.7,                                    !- Solar Absorptance
  0.7;                                    !- Visible Absorptance

OS:Material,
  {15695b6e-4430-4c1d-8ca9-d35cfe132195}, !- Handle
  Roof Insulation [18],                   !- Name
  MediumRough,                            !- Roughness
  0.1693,                                 !- Thickness {m}
  0.049,                                  !- Conductivity {W/m-K}
  265,                                    !- Density {kg/m3}
  836.800000000001,                       !- Specific Heat {J/kg-K}
  0.9,                                    !- Thermal Absorptance
  0.7,                                    !- Solar Absorptance
  0.7;                                    !- Visible Absorptance

OS:Material,
  {5f7d4784-3e07-4e37-9dee-1a971a5d0d01}, !- Handle
  Metal Decking,                          !- Name
  MediumSmooth,                           !- Roughness
  0.0015,                                 !- Thickness {m}
  45.006,                                 !- Conductivity {W/m-K}
  7680,                                   !- Density {kg/m3}
  418.4,                                  !- Specific Heat {J/kg-K}
  0.9,                                    !- Thermal Absorptance
  0.7,                                    !- Solar Absorptance
  0.3;                                    !- Visible Absorptance

OS:Construction,
  {b69ea3b2-ebbe-4752-b214-ce5b892360c5}, !- Handle
  ASHRAE 189.1-2009 ExtRoof IEAD ClimateZone 2-5, !- Name
  ,                                       !- Surface Rendering Name
  {b7a56cc1-6e0a-4f7b-8809-b2aad894bc5a}, !- Layer 1
  {d0736a34-3241-4bd9-9577-7e01fd66154a}, !- Layer 2
  {5f7d4784-3e07-4e37-9dee-1a971a5d0d01}; !- Layer 3

OS:StandardsInformation:Construction,
  {e97a6b4e-c0c7-4721-8c4f-4a35e1882944}, !- Handle
  {b69ea3b2-ebbe-4752-b214-ce5b892360c5}, !- Construction Name
  ExteriorRoof,                           !- Intended Surface Type
  IEAD;                                   !- Standards Construction Type

OS:Material,
  {d0736a34-3241-4bd9-9577-7e01fd66154a}, !- Handle
  Roof Insulation [21],                   !- Name
  MediumRough,                            !- Roughness
  0.2105,                                 !- Thickness {m}
  0.049,                                  !- Conductivity {W/m-K}
  265,                                    !- Density {kg/m3}
  836.800000000001,                       !- Specific Heat {J/kg-K}
  0.9,                                    !- Thermal Absorptance
  0.7,                                    !- Solar Absorptance
  0.7;                                    !- Visible Absorptance

OS:Construction,
  {42f9e50a-0f16-4d0e-91a1-7ffafe4a23a2}, !- Handle
  ASHRAE 189.1-2009 ExtRoof IEAD ClimateZone 6, !- Name
  ,                                       !- Surface Rendering Name
  {b7a56cc1-6e0a-4f7b-8809-b2aad894bc5a}, !- Layer 1
  {581e504e-3884-4924-88b9-6fa1ddd16848}, !- Layer 2
  {5f7d4784-3e07-4e37-9dee-1a971a5d0d01}; !- Layer 3

OS:StandardsInformation:Construction,
  {b75b06ea-9058-4cb6-84bc-a8a938ac1413}, !- Handle
  {42f9e50a-0f16-4d0e-91a1-7ffafe4a23a2}, !- Construction Name
  ExteriorRoof,                           !- Intended Surface Type
  IEAD;                                   !- Standards Construction Type

OS:Material,
  {581e504e-3884-4924-88b9-6fa1ddd16848}, !- Handle
  Roof Insulation [24],                   !- Name
  MediumRough,                            !- Roughness
  0.260100000000001,                      !- Thickness {m}
  0.049,                                  !- Conductivity {W/m-K}
  265,                                    !- Density {kg/m3}
  836.800000000001,                       !- Specific Heat {J/kg-K}
  0.9,                                    !- Thermal Absorptance
  0.7,                                    !- Solar Absorptance
  0.7;                                    !- Visible Absorptance

OS:Construction,
  {3bd80944-e018-439e-b182-2918dacc8e23}, !- Handle
  ASHRAE 189.1-2009 ExtRoof IEAD ClimateZone 7-8, !- Name
  ,                                       !- Surface Rendering Name
  {b7a56cc1-6e0a-4f7b-8809-b2aad894bc5a}, !- Layer 1
  {dc35a4d5-4f9d-49bb-8fb1-70c152a31de8}, !- Layer 2
  {5f7d4784-3e07-4e37-9dee-1a971a5d0d01}; !- Layer 3

OS:StandardsInformation:Construction,
  {0c3475af-dc16-40d3-bad5-cdf231f2967d}, !- Handle
  {3bd80944-e018-439e-b182-2918dacc8e23}, !- Construction Name
  ExteriorRoof,                           !- Intended Surface Type
  IEAD;                                   !- Standards Construction Type

OS:Material,
  {dc35a4d5-4f9d-49bb-8fb1-70c152a31de8}, !- Handle
  Roof Insulation [26],                   !- Name
  MediumRough,                            !- Roughness
  0.2941,                                 !- Thickness {m}
  0.049,                                  !- Conductivity {W/m-K}
  265,                                    !- Density {kg/m3}
  836.800000000001,                       !- Specific Heat {J/kg-K}
  0.9,                                    !- Thermal Absorptance
  0.7,                                    !- Solar Absorptance
  0.7;                                    !- Visible Absorptance

OS:Construction,
  {2b33595a-e988-49c5-9b08-5814d7aecfbe}, !- Handle
  ASHRAE 189.1-2009 ExtRoof Metal ClimateZone 1, !- Name
  ,                                       !- Surface Rendering Name
  {141d9b74-878c-45c3-b71a-52b30ba229b8}, !- Layer 1
  {0ef9f70a-7c9c-42ea-9a10-3d7507550fd8}; !- Layer 2

OS:StandardsInformation:Construction,
  {10f5243b-8cb0-436a-9329-6e72f7b80688}, !- Handle
  {2b33595a-e988-49c5-9b08-5814d7aecfbe}, !- Construction Name
  ExteriorRoof,                           !- Intended Surface Type
  Metal;                                  !- Standards Construction Type

OS:Material,
  {141d9b74-878c-45c3-b71a-52b30ba229b8}, !- Handle
  Metal Roofing,                          !- Name
  MediumSmooth,                           !- Roughness
  0.0015,                                 !- Thickness {m}
  45.006,                                 !- Conductivity {W/m-K}
  7680,                                   !- Density {kg/m3}
  418.4,                                  !- Specific Heat {J/kg-K}
  0.9,                                    !- Thermal Absorptance
  0.3,                                    !- Solar Absorptance
  0.3;                                    !- Visible Absorptance

OS:Material,
  {0ef9f70a-7c9c-42ea-9a10-3d7507550fd8}, !- Handle
  Roof Insulation [19],                   !- Name
  MediumRough,                            !- Roughness
  0.1868,                                 !- Thickness {m}
  0.049,                                  !- Conductivity {W/m-K}
  265,                                    !- Density {kg/m3}
  836.800000000001,                       !- Specific Heat {J/kg-K}
  0.9,                                    !- Thermal Absorptance
  0.7,                                    !- Solar Absorptance
  0.7;                                    !- Visible Absorptance

OS:Construction,
  {82e3beb2-32f6-418c-bc7e-69706117d401}, !- Handle
  ASHRAE 189.1-2009 ExtRoof Metal ClimateZone 2-5, !- Name
  ,                                       !- Surface Rendering Name
  {141d9b74-878c-45c3-b71a-52b30ba229b8}, !- Layer 1
  {884eb9d8-513b-4883-ae46-d92677d18ff5}; !- Layer 2

OS:StandardsInformation:Construction,
  {bce91fba-0074-4084-ba63-c5b9e196f743}, !- Handle
  {82e3beb2-32f6-418c-bc7e-69706117d401}, !- Construction Name
  ExteriorRoof,                           !- Intended Surface Type
  Metal;                                  !- Standards Construction Type

OS:Material,
  {884eb9d8-513b-4883-ae46-d92677d18ff5}, !- Handle
  Roof Insulation [22],                   !- Name
  MediumRough,                            !- Roughness
  0.2358,                                 !- Thickness {m}
  0.049,                                  !- Conductivity {W/m-K}
  265,                                    !- Density {kg/m3}
  836.800000000001,                       !- Specific Heat {J/kg-K}
  0.9,                                    !- Thermal Absorptance
  0.7,                                    !- Solar Absorptance
  0.7;                                    !- Visible Absorptance

OS:Construction,
  {a3d3b9e2-ab5f-490b-916a-83feb4235301}, !- Handle
  ASHRAE 189.1-2009 ExtRoof Metal ClimateZone 6, !- Name
  ,                                       !- Surface Rendering Name
  {141d9b74-878c-45c3-b71a-52b30ba229b8}, !- Layer 1
  {3e2bb88a-8a43-4ce3-b912-381eb1aa0c43}; !- Layer 2

OS:StandardsInformation:Construction,
  {b86b07e7-3b96-40bf-94e4-47a4004081ba}, !- Handle
  {a3d3b9e2-ab5f-490b-916a-83feb4235301}, !- Construction Name
  ExteriorRoof,                           !- Intended Surface Type
  Metal;                                  !- Standards Construction Type

OS:Material,
  {3e2bb88a-8a43-4ce3-b912-381eb1aa0c43}, !- Handle
  Roof Insulation [25],                   !- Name
  MediumRough,                            !- Roughness
  0.263,                                  !- Thickness {m}
  0.049,                                  !- Conductivity {W/m-K}
  265,                                    !- Density {kg/m3}
  836.800000000001,                       !- Specific Heat {J/kg-K}
  0.9,                                    !- Thermal Absorptance
  0.7,                                    !- Solar Absorptance
  0.7;                                    !- Visible Absorptance

OS:Construction,
  {55abcc7d-17d6-4db6-98eb-c01b78de683e}, !- Handle
  ASHRAE 189.1-2009 ExtRoof Metal ClimateZone 7-8, !- Name
  ,                                       !- Surface Rendering Name
  {141d9b74-878c-45c3-b71a-52b30ba229b8}, !- Layer 1
  {9d252568-1ded-459f-bef1-991af03b438f}; !- Layer 2

OS:StandardsInformation:Construction,
  {d1907bb6-5281-4d8a-a9f7-4c9a9ddbe7c0}, !- Handle
  {55abcc7d-17d6-4db6-98eb-c01b78de683e}, !- Construction Name
  ExteriorRoof,                           !- Intended Surface Type
  Metal;                                  !- Standards Construction Type

OS:Material,
  {9d252568-1ded-459f-bef1-991af03b438f}, !- Handle
  Roof Insulation [27],                   !- Name
  MediumRough,                            !- Roughness
  0.297000000000001,                      !- Thickness {m}
  0.049,                                  !- Conductivity {W/m-K}
  265,                                    !- Density {kg/m3}
  836.800000000001,                       !- Specific Heat {J/kg-K}
  0.9,                                    !- Thermal Absorptance
  0.7,                                    !- Solar Absorptance
  0.7;                                    !- Visible Absorptance

OS:Construction,
  {979cb50c-4c7a-4fec-8ab2-0266488f4bf8}, !- Handle
  ASHRAE 189.1-2009 ExtWall Mass ClimateZone 1, !- Name
  ,                                       !- Surface Rendering Name
  {3610fea2-0685-4730-96bd-7621c5d592f8}, !- Layer 1
  {efdef716-bd2f-42a8-bc7b-273317f8d5e3}, !- Layer 2
  {a19b791c-c9f1-4c80-b1a7-2d2b86a35ba5}, !- Layer 3
  {819005f8-67a7-4d98-8282-be2eebad7704}; !- Layer 4

OS:StandardsInformation:Construction,
  {429b7ff3-d9db-433c-883b-52bbbd19b96c}, !- Handle
  {979cb50c-4c7a-4fec-8ab2-0266488f4bf8}, !- Construction Name
  ExteriorWall,                           !- Intended Surface Type
  Mass;                                   !- Standards Construction Type

OS:Material,
  {3610fea2-0685-4730-96bd-7621c5d592f8}, !- Handle
  1IN Stucco,                             !- Name
  Smooth,                                 !- Roughness
  0.0253,                                 !- Thickness {m}
  0.691799999999999,                      !- Conductivity {W/m-K}
  1858,                                   !- Density {kg/m3}
  836.999999999999,                       !- Specific Heat {J/kg-K}
  0.9,                                    !- Thermal Absorptance
  0.92,                                   !- Solar Absorptance
  0.92;                                   !- Visible Absorptance

OS:Material,
  {efdef716-bd2f-42a8-bc7b-273317f8d5e3}, !- Handle
  8IN Concrete HW,                        !- Name
  MediumRough,                            !- Roughness
  0.2033,                                 !- Thickness {m}
  1.72959999999999,                       !- Conductivity {W/m-K}
  2242.99999999999,                       !- Density {kg/m3}
  836.999999999999,                       !- Specific Heat {J/kg-K}
  0.9,                                    !- Thermal Absorptance
  0.65,                                   !- Solar Absorptance
  0.65;                                   !- Visible Absorptance

OS:Material,
  {a19b791c-c9f1-4c80-b1a7-2d2b86a35ba5}, !- Handle
  Wall Insulation [31],                   !- Name
  MediumRough,                            !- Roughness
  0.0337000000000001,                     !- Thickness {m}
  0.0432,                                 !- Conductivity {W/m-K}
  91,                                     !- Density {kg/m3}
  836.999999999999,                       !- Specific Heat {J/kg-K}
  0.9,                                    !- Thermal Absorptance
  0.5,                                    !- Solar Absorptance
  0.5;                                    !- Visible Absorptance

OS:Construction,
  {bae338b5-4869-4d5f-96a7-e6b9fe4c0d19}, !- Handle
  ASHRAE 189.1-2009 ExtWall Mass ClimateZone 2, !- Name
  ,                                       !- Surface Rendering Name
  {3610fea2-0685-4730-96bd-7621c5d592f8}, !- Layer 1
  {efdef716-bd2f-42a8-bc7b-273317f8d5e3}, !- Layer 2
  {b4078d70-01bb-4a12-bed8-ff5ca95a2a8a}, !- Layer 3
  {819005f8-67a7-4d98-8282-be2eebad7704}; !- Layer 4

OS:StandardsInformation:Construction,
  {c841248a-1d39-4bf5-ad80-ac9f15815fa8}, !- Handle
  {bae338b5-4869-4d5f-96a7-e6b9fe4c0d19}, !- Construction Name
  ExteriorWall,                           !- Intended Surface Type
  Mass;                                   !- Standards Construction Type

OS:Material,
  {b4078d70-01bb-4a12-bed8-ff5ca95a2a8a}, !- Handle
  Wall Insulation [35],                   !- Name
  MediumRough,                            !- Roughness
  0.0452,                                 !- Thickness {m}
  0.0432,                                 !- Conductivity {W/m-K}
  91,                                     !- Density {kg/m3}
  836.999999999999,                       !- Specific Heat {J/kg-K}
  0.9,                                    !- Thermal Absorptance
  0.5,                                    !- Solar Absorptance
  0.5;                                    !- Visible Absorptance

OS:Construction,
  {c920dd02-7c86-4a0e-aea7-1db5a253a00f}, !- Handle
  ASHRAE 189.1-2009 ExtWall Mass ClimateZone 3, !- Name
  ,                                       !- Surface Rendering Name
  {3610fea2-0685-4730-96bd-7621c5d592f8}, !- Layer 1
  {efdef716-bd2f-42a8-bc7b-273317f8d5e3}, !- Layer 2
  {dbd85ae7-2797-4d69-9f3c-2c03a0e92519}, !- Layer 3
  {819005f8-67a7-4d98-8282-be2eebad7704}; !- Layer 4

OS:StandardsInformation:Construction,
  {22f80ce5-bc61-449e-8bab-084dca5791fc}, !- Handle
  {c920dd02-7c86-4a0e-aea7-1db5a253a00f}, !- Construction Name
  ExteriorWall,                           !- Intended Surface Type
  Mass;                                   !- Standards Construction Type

OS:Material,
  {dbd85ae7-2797-4d69-9f3c-2c03a0e92519}, !- Handle
  Wall Insulation [36],                   !- Name
  MediumRough,                            !- Roughness
  0.0565999999999999,                     !- Thickness {m}
  0.0432,                                 !- Conductivity {W/m-K}
  91,                                     !- Density {kg/m3}
  836.999999999999,                       !- Specific Heat {J/kg-K}
  0.9,                                    !- Thermal Absorptance
  0.5,                                    !- Solar Absorptance
  0.5;                                    !- Visible Absorptance

OS:Construction,
  {26fdade0-b1aa-4956-b0cb-816cf0037137}, !- Handle
  ASHRAE 189.1-2009 ExtWall Mass ClimateZone 4, !- Name
  ,                                       !- Surface Rendering Name
  {3610fea2-0685-4730-96bd-7621c5d592f8}, !- Layer 1
  {efdef716-bd2f-42a8-bc7b-273317f8d5e3}, !- Layer 2
  {9d5ebe92-ac08-4f22-bc8d-26b7addc9361}, !- Layer 3
  {819005f8-67a7-4d98-8282-be2eebad7704}; !- Layer 4

OS:StandardsInformation:Construction,
  {a2a72cc3-9322-4d08-b893-4bb6a3830eb3}, !- Handle
  {26fdade0-b1aa-4956-b0cb-816cf0037137}, !- Construction Name
  ExteriorWall,                           !- Intended Surface Type
  Mass;                                   !- Standards Construction Type

OS:Material,
  {9d5ebe92-ac08-4f22-bc8d-26b7addc9361}, !- Handle
  Wall Insulation [37],                   !- Name
  MediumRough,                            !- Roughness
  0.0680999999999999,                     !- Thickness {m}
  0.0432,                                 !- Conductivity {W/m-K}
  91,                                     !- Density {kg/m3}
  836.999999999999,                       !- Specific Heat {J/kg-K}
  0.9,                                    !- Thermal Absorptance
  0.5,                                    !- Solar Absorptance
  0.5;                                    !- Visible Absorptance

OS:Construction,
  {b8f01946-c8e9-4637-93ee-f9c98cd9b7f5}, !- Handle
  ASHRAE 189.1-2009 ExtWall Mass ClimateZone 5, !- Name
  ,                                       !- Surface Rendering Name
  {3610fea2-0685-4730-96bd-7621c5d592f8}, !- Layer 1
  {efdef716-bd2f-42a8-bc7b-273317f8d5e3}, !- Layer 2
  {d7ff198f-3163-41c1-a716-2f0836230484}, !- Layer 3
  {819005f8-67a7-4d98-8282-be2eebad7704}; !- Layer 4

OS:StandardsInformation:Construction,
  {356ad560-6191-4542-939e-ac45b7834aff}, !- Handle
  {b8f01946-c8e9-4637-93ee-f9c98cd9b7f5}, !- Construction Name
  ExteriorWall,                           !- Intended Surface Type
  Mass;                                   !- Standards Construction Type

OS:Material,
  {d7ff198f-3163-41c1-a716-2f0836230484}, !- Handle
  Wall Insulation [40],                   !- Name
  MediumRough,                            !- Roughness
  0.0793999999999999,                     !- Thickness {m}
  0.0432,                                 !- Conductivity {W/m-K}
  91,                                     !- Density {kg/m3}
  836.999999999999,                       !- Specific Heat {J/kg-K}
  0.9,                                    !- Thermal Absorptance
  0.5,                                    !- Solar Absorptance
  0.5;                                    !- Visible Absorptance

OS:Construction,
  {adafe34e-4174-45e5-af4b-9e5a95719739}, !- Handle
  ASHRAE 189.1-2009 ExtWall Mass ClimateZone 6, !- Name
  ,                                       !- Surface Rendering Name
  {3610fea2-0685-4730-96bd-7621c5d592f8}, !- Layer 1
  {efdef716-bd2f-42a8-bc7b-273317f8d5e3}, !- Layer 2
  {2938d87a-5d5a-4311-9ba7-856abb9d9987}, !- Layer 3
  {819005f8-67a7-4d98-8282-be2eebad7704}; !- Layer 4

OS:StandardsInformation:Construction,
  {91b6541d-f4b5-442c-85a5-643e538e54dc}, !- Handle
  {adafe34e-4174-45e5-af4b-9e5a95719739}, !- Construction Name
  ExteriorWall,                           !- Intended Surface Type
  Mass;                                   !- Standards Construction Type

OS:Material,
  {2938d87a-5d5a-4311-9ba7-856abb9d9987}, !- Handle
  Wall Insulation [42],                   !- Name
  MediumRough,                            !- Roughness
  0.0913999999999999,                     !- Thickness {m}
  0.0432,                                 !- Conductivity {W/m-K}
  91,                                     !- Density {kg/m3}
  836.999999999999,                       !- Specific Heat {J/kg-K}
  0.9,                                    !- Thermal Absorptance
  0.5,                                    !- Solar Absorptance
  0.5;                                    !- Visible Absorptance

OS:Construction,
  {8424578c-b605-4f1e-a4d8-86d70213cc74}, !- Handle
  ASHRAE 189.1-2009 ExtWall Mass ClimateZone 7-8, !- Name
  ,                                       !- Surface Rendering Name
  {3610fea2-0685-4730-96bd-7621c5d592f8}, !- Layer 1
  {efdef716-bd2f-42a8-bc7b-273317f8d5e3}, !- Layer 2
  {6f25c1d6-894f-4b12-aec2-7f92e4a51d18}, !- Layer 3
  {819005f8-67a7-4d98-8282-be2eebad7704}; !- Layer 4

OS:StandardsInformation:Construction,
  {22bbf01e-3d4e-46fc-82e0-31fed44128fa}, !- Handle
  {8424578c-b605-4f1e-a4d8-86d70213cc74}, !- Construction Name
  ExteriorWall,                           !- Intended Surface Type
  Mass;                                   !- Standards Construction Type

OS:Material,
  {6f25c1d6-894f-4b12-aec2-7f92e4a51d18}, !- Handle
  Wall Insulation [44],                   !- Name
  MediumRough,                            !- Roughness
  0.1104,                                 !- Thickness {m}
  0.0432,                                 !- Conductivity {W/m-K}
  91,                                     !- Density {kg/m3}
  836.999999999999,                       !- Specific Heat {J/kg-K}
  0.9,                                    !- Thermal Absorptance
  0.5,                                    !- Solar Absorptance
  0.5;                                    !- Visible Absorptance

OS:Construction,
  {d260e74c-70d1-4231-91da-8c98e771694c}, !- Handle
  ASHRAE 189.1-2009 ExtWall Mass ClimateZone alt-res 1, !- Name
  ,                                       !- Surface Rendering Name
  {3610fea2-0685-4730-96bd-7621c5d592f8}, !- Layer 1
  {efdef716-bd2f-42a8-bc7b-273317f8d5e3}, !- Layer 2
  {b4078d70-01bb-4a12-bed8-ff5ca95a2a8a}, !- Layer 3
  {819005f8-67a7-4d98-8282-be2eebad7704}; !- Layer 4

OS:StandardsInformation:Construction,
  {99a83e66-de73-41d2-974f-d5f18991ef9c}, !- Handle
  {d260e74c-70d1-4231-91da-8c98e771694c}, !- Construction Name
  ExteriorWall,                           !- Intended Surface Type
  Mass;                                   !- Standards Construction Type

OS:Construction,
  {819d5e6a-1929-4e64-894e-c73ccf46ffec}, !- Handle
  ASHRAE 189.1-2009 ExtWall Mass ClimateZone alt-res 2, !- Name
  ,                                       !- Surface Rendering Name
  {3610fea2-0685-4730-96bd-7621c5d592f8}, !- Layer 1
  {efdef716-bd2f-42a8-bc7b-273317f8d5e3}, !- Layer 2
  {dbd85ae7-2797-4d69-9f3c-2c03a0e92519}, !- Layer 3
  {819005f8-67a7-4d98-8282-be2eebad7704}; !- Layer 4

OS:StandardsInformation:Construction,
  {32feb6aa-b207-496b-ba9c-9ac0a5b49560}, !- Handle
  {819d5e6a-1929-4e64-894e-c73ccf46ffec}, !- Construction Name
  ExteriorWall,                           !- Intended Surface Type
  Mass;                                   !- Standards Construction Type

OS:Construction,
  {eae25ed8-16dc-4cef-858f-478ffd283611}, !- Handle
  ASHRAE 189.1-2009 ExtWall Mass ClimateZone alt-res 3, !- Name
  ,                                       !- Surface Rendering Name
  {3610fea2-0685-4730-96bd-7621c5d592f8}, !- Layer 1
  {efdef716-bd2f-42a8-bc7b-273317f8d5e3}, !- Layer 2
  {9d5ebe92-ac08-4f22-bc8d-26b7addc9361}, !- Layer 3
  {819005f8-67a7-4d98-8282-be2eebad7704}; !- Layer 4

OS:StandardsInformation:Construction,
  {8ac8e3be-40ac-4c0b-b5bf-92d9c90c4fac}, !- Handle
  {eae25ed8-16dc-4cef-858f-478ffd283611}, !- Construction Name
  ExteriorWall,                           !- Intended Surface Type
  Mass;                                   !- Standards Construction Type

OS:Construction,
  {022f005f-7c0d-4b02-81b0-b4415c8135b6}, !- Handle
  ASHRAE 189.1-2009 ExtWall Mass ClimateZone alt-res 4, !- Name
  ,                                       !- Surface Rendering Name
  {3610fea2-0685-4730-96bd-7621c5d592f8}, !- Layer 1
  {efdef716-bd2f-42a8-bc7b-273317f8d5e3}, !- Layer 2
  {d7ff198f-3163-41c1-a716-2f0836230484}, !- Layer 3
  {819005f8-67a7-4d98-8282-be2eebad7704}; !- Layer 4

OS:StandardsInformation:Construction,
  {3a5ab062-f9ef-4367-9f57-cbc4919b0c76}, !- Handle
  {022f005f-7c0d-4b02-81b0-b4415c8135b6}, !- Construction Name
  ExteriorWall,                           !- Intended Surface Type
  Mass;                                   !- Standards Construction Type

OS:Construction,
  {595fe725-04da-4e76-94eb-2e9c93cc3a86}, !- Handle
  ASHRAE 189.1-2009 ExtWall Mass ClimateZone alt-res 5, !- Name
  ,                                       !- Surface Rendering Name
  {3610fea2-0685-4730-96bd-7621c5d592f8}, !- Layer 1
  {efdef716-bd2f-42a8-bc7b-273317f8d5e3}, !- Layer 2
  {2938d87a-5d5a-4311-9ba7-856abb9d9987}, !- Layer 3
  {819005f8-67a7-4d98-8282-be2eebad7704}; !- Layer 4

OS:StandardsInformation:Construction,
  {73b521fb-cbd6-40c2-bdf5-cf6348e20131}, !- Handle
  {595fe725-04da-4e76-94eb-2e9c93cc3a86}, !- Construction Name
  ExteriorWall,                           !- Intended Surface Type
  Mass;                                   !- Standards Construction Type

OS:Construction,
  {712ade1a-b262-43f6-a316-bdf67287dd87}, !- Handle
  ASHRAE 189.1-2009 ExtWall Mass ClimateZone alt-res 6, !- Name
  ,                                       !- Surface Rendering Name
  {3610fea2-0685-4730-96bd-7621c5d592f8}, !- Layer 1
  {efdef716-bd2f-42a8-bc7b-273317f8d5e3}, !- Layer 2
  {6f25c1d6-894f-4b12-aec2-7f92e4a51d18}, !- Layer 3
  {819005f8-67a7-4d98-8282-be2eebad7704}; !- Layer 4

OS:StandardsInformation:Construction,
  {13c4659a-492d-4c6a-8188-9b674d5b0257}, !- Handle
  {712ade1a-b262-43f6-a316-bdf67287dd87}, !- Construction Name
  ExteriorWall,                           !- Intended Surface Type
  Mass;                                   !- Standards Construction Type

OS:Construction,
  {446db8be-badd-4df6-b0fe-eec4573a4003}, !- Handle
  ASHRAE 189.1-2009 ExtWall Mass ClimateZone alt-res 7, !- Name
  ,                                       !- Surface Rendering Name
  {3610fea2-0685-4730-96bd-7621c5d592f8}, !- Layer 1
  {efdef716-bd2f-42a8-bc7b-273317f8d5e3}, !- Layer 2
  {6f25c1d6-894f-4b12-aec2-7f92e4a51d18}, !- Layer 3
  {819005f8-67a7-4d98-8282-be2eebad7704}; !- Layer 4

OS:StandardsInformation:Construction,
  {8502e35d-9e98-4b57-9140-437dbfbe44c5}, !- Handle
  {446db8be-badd-4df6-b0fe-eec4573a4003}, !- Construction Name
  ExteriorWall,                           !- Intended Surface Type
  Mass;                                   !- Standards Construction Type

OS:Construction,
  {8f318bc3-4f42-4732-9f17-2afc70dafdee}, !- Handle
  ASHRAE 189.1-2009 ExtWall Mass ClimateZone alt-res 8, !- Name