
OS:Version,
  {c0751e37-76ab-4046-9504-5e0b2a98872d}, !- Handle
  1.3.3;                                  !- Version Identifier

OS:Construction,
  {288a44cb-5930-4a1a-b128-969a0582dbea}, !- Handle
  ASHRAE 189.1-2009 AtticFloor ClimateZone 1-8, !- Name
  ,                                       !- Surface Rendering Name
  {4a581440-1c18-419f-a1e6-a8d4449584ac}, !- Layer 1
  {a7ae770e-5a05-419b-87bb-08828bc6cb60}, !- Layer 2
  {4a581440-1c18-419f-a1e6-a8d4449584ac}; !- Layer 3

OS:StandardsInformation:Construction,
  {18554a49-bfeb-4415-854d-8fae770e4aef}, !- Handle
  {288a44cb-5930-4a1a-b128-969a0582dbea}, !- Construction Name
  AtticFloor,                             !- Intended Surface Type
  WoodFramed;                             !- Standards Construction Type

OS:Material,
  {4a581440-1c18-419f-a1e6-a8d4449584ac}, !- Handle
  1/2IN Gypsum,                           !- Name
  Smooth,                                 !- Roughness
  0.0127,                                 !- Thickness {m}
  0.16,                                   !- Conductivity {W/m-K}
  784.9,                                  !- Density {kg/m3}
  830.000000000001,                       !- Specific Heat {J/kg-K}
  0.9,                                    !- Thermal Absorptance
  0.92,                                   !- Solar Absorptance
  0.92;                                   !- Visible Absorptance

OS:Material,
  {a7ae770e-5a05-419b-87bb-08828bc6cb60}, !- Handle
  AtticFloor Insulation,                  !- Name
  MediumRough,                            !- Roughness
  0.2379,                                 !- Thickness {m}
  0.049,                                  !- Conductivity {W/m-K}
  265,                                    !- Density {kg/m3}
  836.800000000001,                       !- Specific Heat {J/kg-K}
  0.9,                                    !- Thermal Absorptance
  0.7,                                    !- Solar Absorptance
  0.7;                                    !- Visible Absorptance

OS:Construction,
  {47fe15ab-525b-4aae-a33d-2a60da29bae3}, !- Handle
  ASHRAE 189.1-2009 ExtRoof IEAD ClimateZone 1, !- Name
  ,                                       !- Surface Rendering Name
  {8ef8f25c-3a25-4cbd-8fc6-2446154495d5}, !- Layer 1
  {93b57be5-df05-410c-bda5-edce7f9f7082}, !- Layer 2
  {580feabb-f013-4b1a-bdb1-a800fabc0ca4}; !- Layer 3

OS:StandardsInformation:Construction,
  {a727ae9c-d89f-437b-ab7f-ae4b1c8e0f51}, !- Handle
  {47fe15ab-525b-4aae-a33d-2a60da29bae3}, !- Construction Name
  ExteriorRoof,                           !- Intended Surface Type
  IEAD;                                   !- Standards Construction Type

OS:Material,
  {8ef8f25c-3a25-4cbd-8fc6-2446154495d5}, !- Handle
  Roof Membrane,                          !- Name
  VeryRough,                              !- Roughness
  0.0095,                                 !- Thickness {m}
  0.16,                                   !- Conductivity {W/m-K}
  1121.29,                                !- Density {kg/m3}
  1460,                                   !- Specific Heat {J/kg-K}
  0.9,                                    !- Thermal Absorptance
  0.7,                                    !- Solar Absorptance
  0.7;                                    !- Visible Absorptance

OS:Material,
  {93b57be5-df05-410c-bda5-edce7f9f7082}, !- Handle
  Roof Insulation [18],                   !- Name
  MediumRough,                            !- Roughness
  0.1693,                                 !- Thickness {m}
  0.049,                                  !- Conductivity {W/m-K}
  265,                                    !- Density {kg/m3}
  836.800000000001,                       !- Specific Heat {J/kg-K}
  0.9,                                    !- Thermal Absorptance
  0.7,                                    !- Solar Absorptance
  0.7;                                    !- Visible Absorptance

OS:Material,
  {580feabb-f013-4b1a-bdb1-a800fabc0ca4}, !- Handle
  Metal Decking,                          !- Name
  MediumSmooth,                           !- Roughness
  0.0015,                                 !- Thickness {m}
  45.006,                                 !- Conductivity {W/m-K}
  7680,                                   !- Density {kg/m3}
  418.4,                                  !- Specific Heat {J/kg-K}
  0.9,                                    !- Thermal Absorptance
  0.7,                                    !- Solar Absorptance
  0.3;                                    !- Visible Absorptance

OS:Construction,
  {5ffa250c-a040-41de-82f5-45087c26b1d3}, !- Handle
  ASHRAE 189.1-2009 ExtRoof IEAD ClimateZone 2-5, !- Name
  ,                                       !- Surface Rendering Name
  {8ef8f25c-3a25-4cbd-8fc6-2446154495d5}, !- Layer 1
  {8a7de8f2-d3f3-4f9f-8f6b-617b8a18d5e4}, !- Layer 2
  {580feabb-f013-4b1a-bdb1-a800fabc0ca4}; !- Layer 3

OS:StandardsInformation:Construction,
  {93832e53-899d-48c7-988f-6c4d22a10785}, !- Handle
  {5ffa250c-a040-41de-82f5-45087c26b1d3}, !- Construction Name
  ExteriorRoof,                           !- Intended Surface Type
  IEAD;                                   !- Standards Construction Type

OS:Material,
  {8a7de8f2-d3f3-4f9f-8f6b-617b8a18d5e4}, !- Handle
  Roof Insulation [21],                   !- Name
  MediumRough,                            !- Roughness
  0.2105,                                 !- Thickness {m}
  0.049,                                  !- Conductivity {W/m-K}
  265,                                    !- Density {kg/m3}
  836.800000000001,                       !- Specific Heat {J/kg-K}
  0.9,                                    !- Thermal Absorptance
  0.7,                                    !- Solar Absorptance
  0.7;                                    !- Visible Absorptance

OS:Construction,
  {89c99ce1-4c23-4c3c-ac57-40bbff1334fa}, !- Handle
  ASHRAE 189.1-2009 ExtRoof IEAD ClimateZone 6, !- Name
  ,                                       !- Surface Rendering Name
  {8ef8f25c-3a25-4cbd-8fc6-2446154495d5}, !- Layer 1
  {f5bea5c3-7694-4b32-87d9-d8ec95e95776}, !- Layer 2
  {580feabb-f013-4b1a-bdb1-a800fabc0ca4}; !- Layer 3

OS:StandardsInformation:Construction,
  {8f2619a5-39ae-4829-ae84-81b0477c7816}, !- Handle
  {89c99ce1-4c23-4c3c-ac57-40bbff1334fa}, !- Construction Name
  ExteriorRoof,                           !- Intended Surface Type
  IEAD;                                   !- Standards Construction Type

OS:Material,
  {f5bea5c3-7694-4b32-87d9-d8ec95e95776}, !- Handle
  Roof Insulation [24],                   !- Name
  MediumRough,                            !- Roughness
  0.260100000000001,                      !- Thickness {m}
  0.049,                                  !- Conductivity {W/m-K}
  265,                                    !- Density {kg/m3}
  836.800000000001,                       !- Specific Heat {J/kg-K}
  0.9,                                    !- Thermal Absorptance
  0.7,                                    !- Solar Absorptance
  0.7;                                    !- Visible Absorptance

OS:Construction,
  {a14e8d46-cf29-49db-8188-0db8ae01abed}, !- Handle
  ASHRAE 189.1-2009 ExtRoof IEAD ClimateZone 7-8, !- Name
  ,                                       !- Surface Rendering Name
  {8ef8f25c-3a25-4cbd-8fc6-2446154495d5}, !- Layer 1
  {75cb4a2d-37fd-4cec-b1c4-2333d64e8da7}, !- Layer 2
  {580feabb-f013-4b1a-bdb1-a800fabc0ca4}; !- Layer 3

OS:StandardsInformation:Construction,
  {ac5ecd39-9063-4de0-8424-67d14f325050}, !- Handle
  {a14e8d46-cf29-49db-8188-0db8ae01abed}, !- Construction Name
  ExteriorRoof,                           !- Intended Surface Type
  IEAD;                                   !- Standards Construction Type

OS:Material,
  {75cb4a2d-37fd-4cec-b1c4-2333d64e8da7}, !- Handle
  Roof Insulation [26],                   !- Name
  MediumRough,                            !- Roughness
  0.2941,                                 !- Thickness {m}
  0.049,                                  !- Conductivity {W/m-K}
  265,                                    !- Density {kg/m3}
  836.800000000001,                       !- Specific Heat {J/kg-K}
  0.9,                                    !- Thermal Absorptance
  0.7,                                    !- Solar Absorptance
  0.7;                                    !- Visible Absorptance

OS:Construction,
  {d284affe-6e5a-46be-b220-5844e7cd833c}, !- Handle
  ASHRAE 189.1-2009 ExtRoof Metal ClimateZone 1, !- Name
  ,                                       !- Surface Rendering Name
  {0c6862b0-29bc-4567-8b3e-58f32ddf60ab}, !- Layer 1
  {286688c5-93b3-4352-8dc1-7c150b782519}; !- Layer 2

OS:StandardsInformation:Construction,
  {4abbe763-3ee7-4388-812a-62b04c7dd311}, !- Handle
  {d284affe-6e5a-46be-b220-5844e7cd833c}, !- Construction Name
  ExteriorRoof,                           !- Intended Surface Type
  Metal;                                  !- Standards Construction Type

OS:Material,
  {0c6862b0-29bc-4567-8b3e-58f32ddf60ab}, !- Handle
  Metal Roofing,                          !- Name
  MediumSmooth,                           !- Roughness
  0.0015,                                 !- Thickness {m}
  45.006,                                 !- Conductivity {W/m-K}
  7680,                                   !- Density {kg/m3}
  418.4,                                  !- Specific Heat {J/kg-K}
  0.9,                                    !- Thermal Absorptance
  0.3,                                    !- Solar Absorptance
  0.3;                                    !- Visible Absorptance

OS:Material,
  {286688c5-93b3-4352-8dc1-7c150b782519}, !- Handle
  Roof Insulation [19],                   !- Name
  MediumRough,                            !- Roughness
  0.1868,                                 !- Thickness {m}
  0.049,                                  !- Conductivity {W/m-K}
  265,                                    !- Density {kg/m3}
  836.800000000001,                       !- Specific Heat {J/kg-K}
  0.9,                                    !- Thermal Absorptance
  0.7,                                    !- Solar Absorptance
  0.7;                                    !- Visible Absorptance

OS:Construction,
  {c3923e3b-94b8-4a54-8bcf-03587677a92f}, !- Handle
  ASHRAE 189.1-2009 ExtRoof Metal ClimateZone 2-5, !- Name
  ,                                       !- Surface Rendering Name
  {0c6862b0-29bc-4567-8b3e-58f32ddf60ab}, !- Layer 1
  {edb21f7a-5137-470a-9fb8-bb17576968af}; !- Layer 2

OS:StandardsInformation:Construction,
  {d9755868-e80f-4486-b70a-d8649a8e93cb}, !- Handle
  {c3923e3b-94b8-4a54-8bcf-03587677a92f}, !- Construction Name
  ExteriorRoof,                           !- Intended Surface Type
  Metal;                                  !- Standards Construction Type

OS:Material,
  {edb21f7a-5137-470a-9fb8-bb17576968af}, !- Handle
  Roof Insulation [22],                   !- Name
  MediumRough,                            !- Roughness
  0.2358,                                 !- Thickness {m}
  0.049,                                  !- Conductivity {W/m-K}
  265,                                    !- Density {kg/m3}
  836.800000000001,                       !- Specific Heat {J/kg-K}
  0.9,                                    !- Thermal Absorptance
  0.7,                                    !- Solar Absorptance
  0.7;                                    !- Visible Absorptance

OS:Construction,
  {ca3abd05-2bc3-4a7c-937c-6651ddf30e77}, !- Handle
  ASHRAE 189.1-2009 ExtRoof Metal ClimateZone 6, !- Name
  ,                                       !- Surface Rendering Name
  {0c6862b0-29bc-4567-8b3e-58f32ddf60ab}, !- Layer 1
  {5a3b1a06-fd74-4d74-8de4-3347a675df94}; !- Layer 2

OS:StandardsInformation:Construction,
  {5c6f3768-c7e4-4941-a442-a914ea351897}, !- Handle
  {ca3abd05-2bc3-4a7c-937c-6651ddf30e77}, !- Construction Name
  ExteriorRoof,                           !- Intended Surface Type
  Metal;                                  !- Standards Construction Type

OS:Material,
  {5a3b1a06-fd74-4d74-8de4-3347a675df94}, !- Handle
  Roof Insulation [25],                   !- Name
  MediumRough,                            !- Roughness
  0.263,                                  !- Thickness {m}
  0.049,                                  !- Conductivity {W/m-K}
  265,                                    !- Density {kg/m3}
  836.800000000001,                       !- Specific Heat {J/kg-K}
  0.9,                                    !- Thermal Absorptance
  0.7,                                    !- Solar Absorptance
  0.7;                                    !- Visible Absorptance

OS:Construction,
  {baebe0b8-0635-462c-9cf7-5790f28db311}, !- Handle
  ASHRAE 189.1-2009 ExtRoof Metal ClimateZone 7-8, !- Name
  ,                                       !- Surface Rendering Name
  {0c6862b0-29bc-4567-8b3e-58f32ddf60ab}, !- Layer 1
  {c4685bde-66f8-42cc-8e2c-943b0a6a6d93}; !- Layer 2

OS:StandardsInformation:Construction,
  {df0ec075-ab48-4378-82a2-08c041cd04f7}, !- Handle
  {baebe0b8-0635-462c-9cf7-5790f28db311}, !- Construction Name
  ExteriorRoof,                           !- Intended Surface Type
  Metal;                                  !- Standards Construction Type

OS:Material,
  {c4685bde-66f8-42cc-8e2c-943b0a6a6d93}, !- Handle
  Roof Insulation [27],                   !- Name
  MediumRough,                            !- Roughness
  0.297000000000001,                      !- Thickness {m}
  0.049,                                  !- Conductivity {W/m-K}
  265,                                    !- Density {kg/m3}
  836.800000000001,                       !- Specific Heat {J/kg-K}
  0.9,                                    !- Thermal Absorptance
  0.7,                                    !- Solar Absorptance
  0.7;                                    !- Visible Absorptance

OS:Construction,
  {ccc73bc1-882d-4d28-8b8a-4835ef6c8bc7}, !- Handle
  ASHRAE 189.1-2009 ExtWall Mass ClimateZone 1, !- Name
  ,                                       !- Surface Rendering Name
  {d836a408-752b-4206-b09d-916b7f08e59f}, !- Layer 1
  {100e52dd-dc2e-48a2-aabf-0d99a112c9d4}, !- Layer 2
  {c80051ac-5028-4493-b832-c9674a26cd5e}, !- Layer 3
  {4a581440-1c18-419f-a1e6-a8d4449584ac}; !- Layer 4

OS:StandardsInformation:Construction,
  {ff69b4df-03a6-47aa-a205-ebb756e43cb1}, !- Handle
  {ccc73bc1-882d-4d28-8b8a-4835ef6c8bc7}, !- Construction Name
  ExteriorWall,                           !- Intended Surface Type
  Mass;                                   !- Standards Construction Type

OS:Material,
  {d836a408-752b-4206-b09d-916b7f08e59f}, !- Handle
  1IN Stucco,                             !- Name
  Smooth,                                 !- Roughness
  0.0253,                                 !- Thickness {m}
  0.691799999999999,                      !- Conductivity {W/m-K}
  1858,                                   !- Density {kg/m3}
  836.999999999999,                       !- Specific Heat {J/kg-K}
  0.9,                                    !- Thermal Absorptance
  0.92,                                   !- Solar Absorptance
  0.92;                                   !- Visible Absorptance

OS:Material,
  {100e52dd-dc2e-48a2-aabf-0d99a112c9d4}, !- Handle
  8IN Concrete HW,                        !- Name
  MediumRough,                            !- Roughness
  0.2033,                                 !- Thickness {m}
  1.72959999999999,                       !- Conductivity {W/m-K}
  2242.99999999999,                       !- Density {kg/m3}
  836.999999999999,                       !- Specific Heat {J/kg-K}
  0.9,                                    !- Thermal Absorptance
  0.65,                                   !- Solar Absorptance
  0.65;                                   !- Visible Absorptance

OS:Material,
  {c80051ac-5028-4493-b832-c9674a26cd5e}, !- Handle
  Wall Insulation [31],                   !- Name
  MediumRough,                            !- Roughness
  0.0337000000000001,                     !- Thickness {m}
  0.0432,                                 !- Conductivity {W/m-K}
  91,                                     !- Density {kg/m3}
  836.999999999999,                       !- Specific Heat {J/kg-K}
  0.9,                                    !- Thermal Absorptance
  0.5,                                    !- Solar Absorptance
  0.5;                                    !- Visible Absorptance

OS:Construction,
  {2f9d512c-74e8-4450-b781-9e3028eaa68a}, !- Handle
  ASHRAE 189.1-2009 ExtWall Mass ClimateZone 2, !- Name
  ,                                       !- Surface Rendering Name
  {d836a408-752b-4206-b09d-916b7f08e59f}, !- Layer 1
  {100e52dd-dc2e-48a2-aabf-0d99a112c9d4}, !- Layer 2
  {265413d4-8266-493c-9fad-e06fe5983837}, !- Layer 3
  {4a581440-1c18-419f-a1e6-a8d4449584ac}; !- Layer 4

OS:StandardsInformation:Construction,
  {3fb5fa73-3407-4910-8944-1298ae5288e7}, !- Handle
  {2f9d512c-74e8-4450-b781-9e3028eaa68a}, !- Construction Name
  ExteriorWall,                           !- Intended Surface Type
  Mass;                                   !- Standards Construction Type

OS:Material,
  {265413d4-8266-493c-9fad-e06fe5983837}, !- Handle
  Wall Insulation [35],                   !- Name
  MediumRough,                            !- Roughness
  0.0452,                                 !- Thickness {m}
  0.0432,                                 !- Conductivity {W/m-K}
  91,                                     !- Density {kg/m3}
  836.999999999999,                       !- Specific Heat {J/kg-K}
  0.9,                                    !- Thermal Absorptance
  0.5,                                    !- Solar Absorptance
  0.5;                                    !- Visible Absorptance

OS:Construction,
  {9f2b980a-d1c9-452a-935d-f4c8811a9334}, !- Handle
  ASHRAE 189.1-2009 ExtWall Mass ClimateZone 3, !- Name
  ,                                       !- Surface Rendering Name
  {d836a408-752b-4206-b09d-916b7f08e59f}, !- Layer 1
  {100e52dd-dc2e-48a2-aabf-0d99a112c9d4}, !- Layer 2
  {9a2cf46f-7009-4fd1-b055-c4ef8072ec79}, !- Layer 3
  {4a581440-1c18-419f-a1e6-a8d4449584ac}; !- Layer 4

OS:StandardsInformation:Construction,
  {c0509575-7d1c-425e-87aa-629ba888b5b6}, !- Handle
  {9f2b980a-d1c9-452a-935d-f4c8811a9334}, !- Construction Name
  ExteriorWall,                           !- Intended Surface Type
  Mass;                                   !- Standards Construction Type

OS:Material,
  {9a2cf46f-7009-4fd1-b055-c4ef8072ec79}, !- Handle
  Wall Insulation [36],                   !- Name
  MediumRough,                            !- Roughness
  0.0565999999999999,                     !- Thickness {m}
  0.0432,                                 !- Conductivity {W/m-K}
  91,                                     !- Density {kg/m3}
  836.999999999999,                       !- Specific Heat {J/kg-K}
  0.9,                                    !- Thermal Absorptance
  0.5,                                    !- Solar Absorptance
  0.5;                                    !- Visible Absorptance

OS:Construction,
  {12b2cb8d-ef44-473a-83c7-9c8f259170d9}, !- Handle
  ASHRAE 189.1-2009 ExtWall Mass ClimateZone 4, !- Name
  ,                                       !- Surface Rendering Name
  {d836a408-752b-4206-b09d-916b7f08e59f}, !- Layer 1
  {100e52dd-dc2e-48a2-aabf-0d99a112c9d4}, !- Layer 2
  {88355173-5a3f-4490-9d15-3971784c296b}, !- Layer 3
  {4a581440-1c18-419f-a1e6-a8d4449584ac}; !- Layer 4

OS:StandardsInformation:Construction,
  {25919ab8-18fa-49e3-a1a2-ba66c75b7b09}, !- Handle
  {12b2cb8d-ef44-473a-83c7-9c8f259170d9}, !- Construction Name
  ExteriorWall,                           !- Intended Surface Type
  Mass;                                   !- Standards Construction Type

OS:Material,
  {88355173-5a3f-4490-9d15-3971784c296b}, !- Handle
  Wall Insulation [37],                   !- Name
  MediumRough,                            !- Roughness
  0.0680999999999999,                     !- Thickness {m}
  0.0432,                                 !- Conductivity {W/m-K}
  91,                                     !- Density {kg/m3}
  836.999999999999,                       !- Specific Heat {J/kg-K}
  0.9,                                    !- Thermal Absorptance
  0.5,                                    !- Solar Absorptance
  0.5;                                    !- Visible Absorptance

OS:Construction,
  {81ebd326-21ae-4a5b-9669-995f4137bf72}, !- Handle
  ASHRAE 189.1-2009 ExtWall Mass ClimateZone 5, !- Name
  ,                                       !- Surface Rendering Name
  {d836a408-752b-4206-b09d-916b7f08e59f}, !- Layer 1
  {100e52dd-dc2e-48a2-aabf-0d99a112c9d4}, !- Layer 2
  {7312feb1-b891-4c7f-a367-b59a25ffca05}, !- Layer 3
  {4a581440-1c18-419f-a1e6-a8d4449584ac}; !- Layer 4

OS:StandardsInformation:Construction,
  {f6d1f1e4-5cdb-4a81-a390-223f912ff6ea}, !- Handle
  {81ebd326-21ae-4a5b-9669-995f4137bf72}, !- Construction Name
  ExteriorWall,                           !- Intended Surface Type
  Mass;                                   !- Standards Construction Type

OS:Material,
  {7312feb1-b891-4c7f-a367-b59a25ffca05}, !- Handle
  Wall Insulation [40],                   !- Name
  MediumRough,                            !- Roughness
  0.0793999999999999,                     !- Thickness {m}
  0.0432,                                 !- Conductivity {W/m-K}
  91,                                     !- Density {kg/m3}
  836.999999999999,                       !- Specific Heat {J/kg-K}
  0.9,                                    !- Thermal Absorptance
  0.5,                                    !- Solar Absorptance
  0.5;                                    !- Visible Absorptance

OS:Construction,
  {30e8fb30-d742-484d-a91b-e15c50dbc744}, !- Handle
  ASHRAE 189.1-2009 ExtWall Mass ClimateZone 6, !- Name
  ,                                       !- Surface Rendering Name
  {d836a408-752b-4206-b09d-916b7f08e59f}, !- Layer 1
  {100e52dd-dc2e-48a2-aabf-0d99a112c9d4}, !- Layer 2
  {6363192d-2da4-45e9-ba71-b3e7bb04a8b1}, !- Layer 3
  {4a581440-1c18-419f-a1e6-a8d4449584ac}; !- Layer 4

OS:StandardsInformation:Construction,
  {a50fd574-9e99-41f5-a3c6-97b41b377f6c}, !- Handle
  {30e8fb30-d742-484d-a91b-e15c50dbc744}, !- Construction Name
  ExteriorWall,                           !- Intended Surface Type
  Mass;                                   !- Standards Construction Type

OS:Material,
  {6363192d-2da4-45e9-ba71-b3e7bb04a8b1}, !- Handle
  Wall Insulation [42],                   !- Name
  MediumRough,                            !- Roughness
  0.0913999999999999,                     !- Thickness {m}
  0.0432,                                 !- Conductivity {W/m-K}
  91,                                     !- Density {kg/m3}
  836.999999999999,                       !- Specific Heat {J/kg-K}
  0.9,                                    !- Thermal Absorptance
  0.5,                                    !- Solar Absorptance
  0.5;                                    !- Visible Absorptance

OS:Construction,
  {edbf8285-2ed2-4ba5-be4f-29b458a3f07c}, !- Handle
  ASHRAE 189.1-2009 ExtWall Mass ClimateZone 7-8, !- Name
  ,                                       !- Surface Rendering Name
  {d836a408-752b-4206-b09d-916b7f08e59f}, !- Layer 1
  {100e52dd-dc2e-48a2-aabf-0d99a112c9d4}, !- Layer 2
  {a3ea001f-9236-4986-ab88-59a3069bcba1}, !- Layer 3
  {4a581440-1c18-419f-a1e6-a8d4449584ac}; !- Layer 4

OS:StandardsInformation:Construction,
  {8f5b75a2-69db-47b7-b8f6-4c922a187b15}, !- Handle
  {edbf8285-2ed2-4ba5-be4f-29b458a3f07c}, !- Construction Name
  ExteriorWall,                           !- Intended Surface Type
  Mass;                                   !- Standards Construction Type

OS:Material,
  {a3ea001f-9236-4986-ab88-59a3069bcba1}, !- Handle
  Wall Insulation [44],                   !- Name
  MediumRough,                            !- Roughness
  0.1104,                                 !- Thickness {m}
  0.0432,                                 !- Conductivity {W/m-K}
  91,                                     !- Density {kg/m3}
  836.999999999999,                       !- Specific Heat {J/kg-K}
  0.9,                                    !- Thermal Absorptance
  0.5,                                    !- Solar Absorptance
  0.5;                                    !- Visible Absorptance

OS:Construction,
  {0f45d6f2-e195-4fcf-a6a3-293edb532714}, !- Handle
  ASHRAE 189.1-2009 ExtWall Mass ClimateZone alt-res 1, !- Name
  ,                                       !- Surface Rendering Name
  {d836a408-752b-4206-b09d-916b7f08e59f}, !- Layer 1
  {100e52dd-dc2e-48a2-aabf-0d99a112c9d4}, !- Layer 2
  {265413d4-8266-493c-9fad-e06fe5983837}, !- Layer 3
  {4a581440-1c18-419f-a1e6-a8d4449584ac}; !- Layer 4

OS:StandardsInformation:Construction,
  {8520bbea-dfc2-431d-af9e-6eb903de1a5e}, !- Handle
  {0f45d6f2-e195-4fcf-a6a3-293edb532714}, !- Construction Name
  ExteriorWall,                           !- Intended Surface Type
  Mass;                                   !- Standards Construction Type

OS:Construction,
  {083a4e71-f298-421e-ad50-3b77e9a21579}, !- Handle
  ASHRAE 189.1-2009 ExtWall Mass ClimateZone alt-res 2, !- Name
  ,                                       !- Surface Rendering Name
  {d836a408-752b-4206-b09d-916b7f08e59f}, !- Layer 1
  {100e52dd-dc2e-48a2-aabf-0d99a112c9d4}, !- Layer 2
  {9a2cf46f-7009-4fd1-b055-c4ef8072ec79}, !- Layer 3
  {4a581440-1c18-419f-a1e6-a8d4449584ac}; !- Layer 4

OS:StandardsInformation:Construction,
  {f111cbc4-199f-4dea-9848-c3fef1e773f0}, !- Handle
  {083a4e71-f298-421e-ad50-3b77e9a21579}, !- Construction Name
  ExteriorWall,                           !- Intended Surface Type
  Mass;                                   !- Standards Construction Type

OS:Construction,
  {7edf7e3d-ec7d-4ded-a2d7-86b572aba889}, !- Handle
  ASHRAE 189.1-2009 ExtWall Mass ClimateZone alt-res 3, !- Name
  ,                                       !- Surface Rendering Name
  {d836a408-752b-4206-b09d-916b7f08e59f}, !- Layer 1
  {100e52dd-dc2e-48a2-aabf-0d99a112c9d4}, !- Layer 2
  {88355173-5a3f-4490-9d15-3971784c296b}, !- Layer 3
  {4a581440-1c18-419f-a1e6-a8d4449584ac}; !- Layer 4

OS:StandardsInformation:Construction,
  {a568f970-f272-4be3-8338-946d5a2cbed0}, !- Handle
  {7edf7e3d-ec7d-4ded-a2d7-86b572aba889}, !- Construction Name
  ExteriorWall,                           !- Intended Surface Type
  Mass;                                   !- Standards Construction Type

OS:Construction,
  {9265bc8f-70ee-464b-b67c-4a596fb88ed0}, !- Handle
  ASHRAE 189.1-2009 ExtWall Mass ClimateZone alt-res 4, !- Name
  ,                                       !- Surface Rendering Name
  {d836a408-752b-4206-b09d-916b7f08e59f}, !- Layer 1
  {100e52dd-dc2e-48a2-aabf-0d99a112c9d4}, !- Layer 2
  {7312feb1-b891-4c7f-a367-b59a25ffca05}, !- Layer 3
  {4a581440-1c18-419f-a1e6-a8d4449584ac}; !- Layer 4

OS:StandardsInformation:Construction,
  {619deaf5-505a-4b67-8805-bc33c83bf79a}, !- Handle
  {9265bc8f-70ee-464b-b67c-4a596fb88ed0}, !- Construction Name
  ExteriorWall,                           !- Intended Surface Type
  Mass;                                   !- Standards Construction Type

OS:Construction,
  {dced0003-3fbd-450e-a8fa-1bb1085e1222}, !- Handle
  ASHRAE 189.1-2009 ExtWall Mass ClimateZone alt-res 5, !- Name
  ,                                       !- Surface Rendering Name
  {d836a408-752b-4206-b09d-916b7f08e59f}, !- Layer 1
  {100e52dd-dc2e-48a2-aabf-0d99a112c9d4}, !- Layer 2
  {6363192d-2da4-45e9-ba71-b3e7bb04a8b1}, !- Layer 3
  {4a581440-1c18-419f-a1e6-a8d4449584ac}; !- Layer 4

OS:StandardsInformation:Construction,
  {b2fb241e-1727-4461-ba35-d72830f6d4d6}, !- Handle
  {dced0003-3fbd-450e-a8fa-1bb1085e1222}, !- Construction Name
  ExteriorWall,                           !- Intended Surface Type
  Mass;                                   !- Standards Construction Type

OS:Construction,
  {6a228ad5-fb7a-40a0-a4cb-af8f2728b795}, !- Handle
  ASHRAE 189.1-2009 ExtWall Mass ClimateZone alt-res 6, !- Name
  ,                                       !- Surface Rendering Name
  {d836a408-752b-4206-b09d-916b7f08e59f}, !- Layer 1
  {100e52dd-dc2e-48a2-aabf-0d99a112c9d4}, !- Layer 2
  {a3ea001f-9236-4986-ab88-59a3069bcba1}, !- Layer 3
  {4a581440-1c18-419f-a1e6-a8d4449584ac}; !- Layer 4

OS:StandardsInformation:Construction,
  {7952ab33-f5be-4a06-9a60-30c9c5172553}, !- Handle
  {6a228ad5-fb7a-40a0-a4cb-af8f2728b795}, !- Construction Name
  ExteriorWall,                           !- Intended Surface Type
  Mass;                                   !- Standards Construction Type

OS:Construction,
  {7f719622-8edd-4507-bcd9-e3e7e0dacf0c}, !- Handle
  ASHRAE 189.1-2009 ExtWall Mass ClimateZone alt-res 7, !- Name
  ,                                       !- Surface Rendering Name
  {d836a408-752b-4206-b09d-916b7f08e59f}, !- Layer 1
  {100e52dd-dc2e-48a2-aabf-0d99a112c9d4}, !- Layer 2
  {a3ea001f-9236-4986-ab88-59a3069bcba1}, !- Layer 3
  {4a581440-1c18-419f-a1e6-a8d4449584ac}; !- Layer 4

OS:StandardsInformation:Construction,
  {90024ded-e2e2-49b6-bf15-6289fa84922e}, !- Handle
  {7f719622-8edd-4507-bcd9-e3e7e0dacf0c}, !- Construction Name
  ExteriorWall,                           !- Intended Surface Type
  Mass;                                   !- Standards Construction Type

OS:Construction,
  {621dc80b-586b-4a22-9f17-2e359d3ed597}, !- Handle
  ASHRAE 189.1-2009 ExtWall Mass ClimateZone alt-res 8, !- Name