
OS:Version,
  {d9d13b95-ef55-4a37-9a6e-e9ce3cc6eb7b}, !- Handle
  1.3.3;                                  !- Version Identifier

OS:Construction,
  {134a8784-e66f-4fad-b5d6-3aee687b2b1b}, !- Handle
  ASHRAE 189.1-2009 AtticFloor ClimateZone 1-8, !- Name
  ,                                       !- Surface Rendering Name
  {b2892be6-b6ff-4587-aa1c-f9c47b197ac8}, !- Layer 1
  {87375e47-48e3-420e-afa3-5deb957dfa8b}, !- Layer 2
  {b2892be6-b6ff-4587-aa1c-f9c47b197ac8}; !- Layer 3

OS:StandardsInformation:Construction,
  {cc4f6d1d-2b36-4415-add5-3f8ff2f82181}, !- Handle
  {134a8784-e66f-4fad-b5d6-3aee687b2b1b}, !- Construction Name
  AtticFloor,                             !- Intended Surface Type
  WoodFramed;                             !- Standards Construction Type

OS:Material,
  {b2892be6-b6ff-4587-aa1c-f9c47b197ac8}, !- Handle
  1/2IN Gypsum,                           !- Name
  Smooth,                                 !- Roughness
  0.0127,                                 !- Thickness {m}
  0.16,                                   !- Conductivity {W/m-K}
  784.9,                                  !- Density {kg/m3}
  830.000000000001,                       !- Specific Heat {J/kg-K}
  0.9,                                    !- Thermal Absorptance
  0.92,                                   !- Solar Absorptance
  0.92;                                   !- Visible Absorptance

OS:Material,
  {87375e47-48e3-420e-afa3-5deb957dfa8b}, !- Handle
  AtticFloor Insulation,                  !- Name
  MediumRough,                            !- Roughness
  0.2379,                                 !- Thickness {m}
  0.049,                                  !- Conductivity {W/m-K}
  265,                                    !- Density {kg/m3}
  836.800000000001,                       !- Specific Heat {J/kg-K}
  0.9,                                    !- Thermal Absorptance
  0.7,                                    !- Solar Absorptance
  0.7;                                    !- Visible Absorptance

OS:Construction,
  {3e3062e4-1c58-4aee-854b-4145ac562e2e}, !- Handle
  ASHRAE 189.1-2009 ExtRoof IEAD ClimateZone 1, !- Name
  ,                                       !- Surface Rendering Name
  {b47d9f75-d06c-49f2-a04e-070cee200600}, !- Layer 1
  {be7375cd-83fd-4df3-bd75-4cde21c632b0}, !- Layer 2
  {f2f9e68e-aff9-46f5-8ba5-8f6aa462374e}; !- Layer 3

OS:StandardsInformation:Construction,
  {3145c5a7-5154-4b03-8099-2c1b5232002d}, !- Handle
  {3e3062e4-1c58-4aee-854b-4145ac562e2e}, !- Construction Name
  ExteriorRoof,                           !- Intended Surface Type
  IEAD;                                   !- Standards Construction Type

OS:Material,
  {b47d9f75-d06c-49f2-a04e-070cee200600}, !- Handle
  Roof Membrane,                          !- Name
  VeryRough,                              !- Roughness
  0.0095,                                 !- Thickness {m}
  0.16,                                   !- Conductivity {W/m-K}
  1121.29,                                !- Density {kg/m3}
  1460,                                   !- Specific Heat {J/kg-K}
  0.9,                                    !- Thermal Absorptance
  0.7,                                    !- Solar Absorptance
  0.7;                                    !- Visible Absorptance

OS:Material,
  {be7375cd-83fd-4df3-bd75-4cde21c632b0}, !- Handle
  Roof Insulation [18],                   !- Name
  MediumRough,                            !- Roughness
  0.1693,                                 !- Thickness {m}
  0.049,                                  !- Conductivity {W/m-K}
  265,                                    !- Density {kg/m3}
  836.800000000001,                       !- Specific Heat {J/kg-K}
  0.9,                                    !- Thermal Absorptance
  0.7,                                    !- Solar Absorptance
  0.7;                                    !- Visible Absorptance

OS:Material,
  {f2f9e68e-aff9-46f5-8ba5-8f6aa462374e}, !- Handle
  Metal Decking,                          !- Name
  MediumSmooth,                           !- Roughness
  0.0015,                                 !- Thickness {m}
  45.006,                                 !- Conductivity {W/m-K}
  7680,                                   !- Density {kg/m3}
  418.4,                                  !- Specific Heat {J/kg-K}
  0.9,                                    !- Thermal Absorptance
  0.7,                                    !- Solar Absorptance
  0.3;                                    !- Visible Absorptance

OS:Construction,
  {1f8ec711-ec36-478f-bb07-1c50fdb2ee0e}, !- Handle
  ASHRAE 189.1-2009 ExtRoof IEAD ClimateZone 2-5, !- Name
  ,                                       !- Surface Rendering Name
  {b47d9f75-d06c-49f2-a04e-070cee200600}, !- Layer 1
  {d562ae10-b1fb-4eba-b671-1c0e8481af11}, !- Layer 2
  {f2f9e68e-aff9-46f5-8ba5-8f6aa462374e}; !- Layer 3

OS:StandardsInformation:Construction,
  {7fca12a2-40e1-47e0-b165-2f60b17b20c5}, !- Handle
  {1f8ec711-ec36-478f-bb07-1c50fdb2ee0e}, !- Construction Name
  ExteriorRoof,                           !- Intended Surface Type
  IEAD;                                   !- Standards Construction Type

OS:Material,
  {d562ae10-b1fb-4eba-b671-1c0e8481af11}, !- Handle
  Roof Insulation [21],                   !- Name
  MediumRough,                            !- Roughness
  0.2105,                                 !- Thickness {m}
  0.049,                                  !- Conductivity {W/m-K}
  265,                                    !- Density {kg/m3}
  836.800000000001,                       !- Specific Heat {J/kg-K}
  0.9,                                    !- Thermal Absorptance
  0.7,                                    !- Solar Absorptance
  0.7;                                    !- Visible Absorptance

OS:Construction,
  {7564740f-04b1-451a-8198-e74f70bb4187}, !- Handle
  ASHRAE 189.1-2009 ExtRoof IEAD ClimateZone 6, !- Name
  ,                                       !- Surface Rendering Name
  {b47d9f75-d06c-49f2-a04e-070cee200600}, !- Layer 1
  {cba35525-5372-4587-bc65-946e4a32201c}, !- Layer 2
  {f2f9e68e-aff9-46f5-8ba5-8f6aa462374e}; !- Layer 3

OS:StandardsInformation:Construction,
  {6da41772-ade9-4f73-a27e-83eee8fa3c56}, !- Handle
  {7564740f-04b1-451a-8198-e74f70bb4187}, !- Construction Name
  ExteriorRoof,                           !- Intended Surface Type
  IEAD;                                   !- Standards Construction Type

OS:Material,
  {cba35525-5372-4587-bc65-946e4a32201c}, !- Handle
  Roof Insulation [24],                   !- Name
  MediumRough,                            !- Roughness
  0.260100000000001,                      !- Thickness {m}
  0.049,                                  !- Conductivity {W/m-K}
  265,                                    !- Density {kg/m3}
  836.800000000001,                       !- Specific Heat {J/kg-K}
  0.9,                                    !- Thermal Absorptance
  0.7,                                    !- Solar Absorptance
  0.7;                                    !- Visible Absorptance

OS:Construction,
  {24c3ae1d-04c2-4f35-97f6-849aa6fa9eba}, !- Handle
  ASHRAE 189.1-2009 ExtRoof IEAD ClimateZone 7-8, !- Name
  ,                                       !- Surface Rendering Name
  {b47d9f75-d06c-49f2-a04e-070cee200600}, !- Layer 1
  {6d86114e-778f-4ad2-bf66-b6949ffedb7e}, !- Layer 2
  {f2f9e68e-aff9-46f5-8ba5-8f6aa462374e}; !- Layer 3

OS:StandardsInformation:Construction,
  {f8da069e-1a86-4101-9f90-425ccee28270}, !- Handle
  {24c3ae1d-04c2-4f35-97f6-849aa6fa9eba}, !- Construction Name
  ExteriorRoof,                           !- Intended Surface Type
  IEAD;                                   !- Standards Construction Type

OS:Material,
  {6d86114e-778f-4ad2-bf66-b6949ffedb7e}, !- Handle
  Roof Insulation [26],                   !- Name
  MediumRough,                            !- Roughness
  0.2941,                                 !- Thickness {m}
  0.049,                                  !- Conductivity {W/m-K}
  265,                                    !- Density {kg/m3}
  836.800000000001,                       !- Specific Heat {J/kg-K}
  0.9,                                    !- Thermal Absorptance
  0.7,                                    !- Solar Absorptance
  0.7;                                    !- Visible Absorptance

OS:Construction,
  {145a3783-95c2-4b3b-89a7-2654492ddc35}, !- Handle
  ASHRAE 189.1-2009 ExtRoof Metal ClimateZone 1, !- Name
  ,                                       !- Surface Rendering Name
  {2b3709aa-004a-4698-a53e-7e16040e7b08}, !- Layer 1
  {bf08144c-5fd4-46e5-917b-b3dbb2ae62ab}; !- Layer 2

OS:StandardsInformation:Construction,
  {5d204d09-f310-47b4-a7eb-da26a0eb15d0}, !- Handle
  {145a3783-95c2-4b3b-89a7-2654492ddc35}, !- Construction Name
  ExteriorRoof,                           !- Intended Surface Type
  Metal;                                  !- Standards Construction Type

OS:Material,
  {2b3709aa-004a-4698-a53e-7e16040e7b08}, !- Handle
  Metal Roofing,                          !- Name
  MediumSmooth,                           !- Roughness
  0.0015,                                 !- Thickness {m}
  45.006,                                 !- Conductivity {W/m-K}
  7680,                                   !- Density {kg/m3}
  418.4,                                  !- Specific Heat {J/kg-K}
  0.9,                                    !- Thermal Absorptance
  0.3,                                    !- Solar Absorptance
  0.3;                                    !- Visible Absorptance

OS:Material,
  {bf08144c-5fd4-46e5-917b-b3dbb2ae62ab}, !- Handle
  Roof Insulation [19],                   !- Name
  MediumRough,                            !- Roughness
  0.1868,                                 !- Thickness {m}
  0.049,                                  !- Conductivity {W/m-K}
  265,                                    !- Density {kg/m3}
  836.800000000001,                       !- Specific Heat {J/kg-K}
  0.9,                                    !- Thermal Absorptance
  0.7,                                    !- Solar Absorptance
  0.7;                                    !- Visible Absorptance

OS:Construction,
  {02e3de7a-6fb2-4ab1-a03d-7bafa3a50f2c}, !- Handle
  ASHRAE 189.1-2009 ExtRoof Metal ClimateZone 2-5, !- Name
  ,                                       !- Surface Rendering Name
  {2b3709aa-004a-4698-a53e-7e16040e7b08}, !- Layer 1
  {e3e19c18-5e4e-4c56-9be0-3e66512b8634}; !- Layer 2

OS:StandardsInformation:Construction,
  {4094279d-d2a6-460c-a1af-f9e336bec07c}, !- Handle
  {02e3de7a-6fb2-4ab1-a03d-7bafa3a50f2c}, !- Construction Name
  ExteriorRoof,                           !- Intended Surface Type
  Metal;                                  !- Standards Construction Type

OS:Material,
  {e3e19c18-5e4e-4c56-9be0-3e66512b8634}, !- Handle
  Roof Insulation [22],                   !- Name
  MediumRough,                            !- Roughness
  0.2358,                                 !- Thickness {m}
  0.049,                                  !- Conductivity {W/m-K}
  265,                                    !- Density {kg/m3}
  836.800000000001,                       !- Specific Heat {J/kg-K}
  0.9,                                    !- Thermal Absorptance
  0.7,                                    !- Solar Absorptance
  0.7;                                    !- Visible Absorptance

OS:Construction,
  {31e90042-b4b4-4743-80b9-449946b7ff5a}, !- Handle
  ASHRAE 189.1-2009 ExtRoof Metal ClimateZone 6, !- Name
  ,                                       !- Surface Rendering Name
  {2b3709aa-004a-4698-a53e-7e16040e7b08}, !- Layer 1
  {db2f1a34-2272-4fbf-ae9b-da1d40790a96}; !- Layer 2

OS:StandardsInformation:Construction,
  {c763056a-7aa0-4450-8292-4f5fcd85e877}, !- Handle
  {31e90042-b4b4-4743-80b9-449946b7ff5a}, !- Construction Name
  ExteriorRoof,                           !- Intended Surface Type
  Metal;                                  !- Standards Construction Type

OS:Material,
  {db2f1a34-2272-4fbf-ae9b-da1d40790a96}, !- Handle
  Roof Insulation [25],                   !- Name
  MediumRough,                            !- Roughness
  0.263,                                  !- Thickness {m}
  0.049,                                  !- Conductivity {W/m-K}
  265,                                    !- Density {kg/m3}
  836.800000000001,                       !- Specific Heat {J/kg-K}
  0.9,                                    !- Thermal Absorptance
  0.7,                                    !- Solar Absorptance
  0.7;                                    !- Visible Absorptance

OS:Construction,
  {2caba1b3-0e64-41a4-bd1f-21858cb37c27}, !- Handle
  ASHRAE 189.1-2009 ExtRoof Metal ClimateZone 7-8, !- Name
  ,                                       !- Surface Rendering Name
  {2b3709aa-004a-4698-a53e-7e16040e7b08}, !- Layer 1
  {6fb40825-83c9-40d8-b0c4-d02e653fb6a7}; !- Layer 2

OS:StandardsInformation:Construction,
  {fd1e75f7-f6ff-4d3d-9bbc-9e37c387fd10}, !- Handle
  {2caba1b3-0e64-41a4-bd1f-21858cb37c27}, !- Construction Name
  ExteriorRoof,                           !- Intended Surface Type
  Metal;                                  !- Standards Construction Type

OS:Material,
  {6fb40825-83c9-40d8-b0c4-d02e653fb6a7}, !- Handle
  Roof Insulation [27],                   !- Name
  MediumRough,                            !- Roughness
  0.297000000000001,                      !- Thickness {m}
  0.049,                                  !- Conductivity {W/m-K}
  265,                                    !- Density {kg/m3}
  836.800000000001,                       !- Specific Heat {J/kg-K}
  0.9,                                    !- Thermal Absorptance
  0.7,                                    !- Solar Absorptance
  0.7;                                    !- Visible Absorptance

OS:Construction,
  {6cbeef49-2b20-4127-9675-0fe5eeace5e1}, !- Handle
  ASHRAE 189.1-2009 ExtWall Mass ClimateZone 1, !- Name
  ,                                       !- Surface Rendering Name
  {4b0a1e41-d65d-45cc-9376-feaf5a787f39}, !- Layer 1
  {8e98b0b8-a820-4166-8658-0e573ca25356}, !- Layer 2
  {76c84345-7e98-4439-b4cc-65dacc09d88f}, !- Layer 3
  {b2892be6-b6ff-4587-aa1c-f9c47b197ac8}; !- Layer 4

OS:StandardsInformation:Construction,
  {bf8fb9b3-c4a6-42cf-883b-c6f96d6070e0}, !- Handle
  {6cbeef49-2b20-4127-9675-0fe5eeace5e1}, !- Construction Name
  ExteriorWall,                           !- Intended Surface Type
  Mass;                                   !- Standards Construction Type

OS:Material,
  {4b0a1e41-d65d-45cc-9376-feaf5a787f39}, !- Handle
  1IN Stucco,                             !- Name
  Smooth,                                 !- Roughness
  0.0253,                                 !- Thickness {m}
  0.691799999999999,                      !- Conductivity {W/m-K}
  1858,                                   !- Density {kg/m3}
  836.999999999999,                       !- Specific Heat {J/kg-K}
  0.9,                                    !- Thermal Absorptance
  0.92,                                   !- Solar Absorptance
  0.92;                                   !- Visible Absorptance

OS:Material,
  {8e98b0b8-a820-4166-8658-0e573ca25356}, !- Handle
  8IN Concrete HW,                        !- Name
  MediumRough,                            !- Roughness
  0.2033,                                 !- Thickness {m}
  1.72959999999999,                       !- Conductivity {W/m-K}
  2242.99999999999,                       !- Density {kg/m3}
  836.999999999999,                       !- Specific Heat {J/kg-K}
  0.9,                                    !- Thermal Absorptance
  0.65,                                   !- Solar Absorptance
  0.65;                                   !- Visible Absorptance

OS:Material,
  {76c84345-7e98-4439-b4cc-65dacc09d88f}, !- Handle
  Wall Insulation [31],                   !- Name
  MediumRough,                            !- Roughness
  0.0337000000000001,                     !- Thickness {m}
  0.0432,                                 !- Conductivity {W/m-K}
  91,                                     !- Density {kg/m3}
  836.999999999999,                       !- Specific Heat {J/kg-K}
  0.9,                                    !- Thermal Absorptance
  0.5,                                    !- Solar Absorptance
  0.5;                                    !- Visible Absorptance

OS:Construction,
  {18b4a48f-27e3-4705-93e0-e98487c71a5e}, !- Handle
  ASHRAE 189.1-2009 ExtWall Mass ClimateZone 2, !- Name
  ,                                       !- Surface Rendering Name
  {4b0a1e41-d65d-45cc-9376-feaf5a787f39}, !- Layer 1
  {8e98b0b8-a820-4166-8658-0e573ca25356}, !- Layer 2
  {2150aace-5b18-4337-96e5-be0bdb232c40}, !- Layer 3
  {b2892be6-b6ff-4587-aa1c-f9c47b197ac8}; !- Layer 4

OS:StandardsInformation:Construction,
  {3f452091-6fd4-4346-8610-892b03d41dda}, !- Handle
  {18b4a48f-27e3-4705-93e0-e98487c71a5e}, !- Construction Name
  ExteriorWall,                           !- Intended Surface Type
  Mass;                                   !- Standards Construction Type

OS:Material,
  {2150aace-5b18-4337-96e5-be0bdb232c40}, !- Handle
  Wall Insulation [35],                   !- Name
  MediumRough,                            !- Roughness
  0.0452,                                 !- Thickness {m}
  0.0432,                                 !- Conductivity {W/m-K}
  91,                                     !- Density {kg/m3}
  836.999999999999,                       !- Specific Heat {J/kg-K}
  0.9,                                    !- Thermal Absorptance
  0.5,                                    !- Solar Absorptance
  0.5;                                    !- Visible Absorptance

OS:Construction,
  {56d4319e-fe84-4b4e-8327-0b4b77246247}, !- Handle
  ASHRAE 189.1-2009 ExtWall Mass ClimateZone 3, !- Name
  ,                                       !- Surface Rendering Name
  {4b0a1e41-d65d-45cc-9376-feaf5a787f39}, !- Layer 1
  {8e98b0b8-a820-4166-8658-0e573ca25356}, !- Layer 2
  {ed0f9de4-b0cf-48f4-bf27-e9cf83a8a795}, !- Layer 3
  {b2892be6-b6ff-4587-aa1c-f9c47b197ac8}; !- Layer 4

OS:StandardsInformation:Construction,
  {dbf7b912-0b94-4e41-9159-bca7337f60ce}, !- Handle
  {56d4319e-fe84-4b4e-8327-0b4b77246247}, !- Construction Name
  ExteriorWall,                           !- Intended Surface Type
  Mass;                                   !- Standards Construction Type

OS:Material,
  {ed0f9de4-b0cf-48f4-bf27-e9cf83a8a795}, !- Handle
  Wall Insulation [36],                   !- Name
  MediumRough,                            !- Roughness
  0.0565999999999999,                     !- Thickness {m}
  0.0432,                                 !- Conductivity {W/m-K}
  91,                                     !- Density {kg/m3}
  836.999999999999,                       !- Specific Heat {J/kg-K}
  0.9,                                    !- Thermal Absorptance
  0.5,                                    !- Solar Absorptance
  0.5;                                    !- Visible Absorptance

OS:Construction,
  {733ec16d-c3ad-41f0-a468-4972d06ee461}, !- Handle
  ASHRAE 189.1-2009 ExtWall Mass ClimateZone 4, !- Name
  ,                                       !- Surface Rendering Name
  {4b0a1e41-d65d-45cc-9376-feaf5a787f39}, !- Layer 1
  {8e98b0b8-a820-4166-8658-0e573ca25356}, !- Layer 2
  {097db580-8b1a-47c9-a2dc-4e1bec6e9a30}, !- Layer 3
  {b2892be6-b6ff-4587-aa1c-f9c47b197ac8}; !- Layer 4

OS:StandardsInformation:Construction,
  {4b346587-8a80-4f91-945c-bebba6c14807}, !- Handle
  {733ec16d-c3ad-41f0-a468-4972d06ee461}, !- Construction Name
  ExteriorWall,                           !- Intended Surface Type
  Mass;                                   !- Standards Construction Type

OS:Material,
  {097db580-8b1a-47c9-a2dc-4e1bec6e9a30}, !- Handle
  Wall Insulation [37],                   !- Name
  MediumRough,                            !- Roughness
  0.0680999999999999,                     !- Thickness {m}
  0.0432,                                 !- Conductivity {W/m-K}
  91,                                     !- Density {kg/m3}
  836.999999999999,                       !- Specific Heat {J/kg-K}
  0.9,                                    !- Thermal Absorptance
  0.5,                                    !- Solar Absorptance
  0.5;                                    !- Visible Absorptance

OS:Construction,
  {f4a115ea-f58c-4943-862f-08183a2c1deb}, !- Handle
  ASHRAE 189.1-2009 ExtWall Mass ClimateZone 5, !- Name
  ,                                       !- Surface Rendering Name
  {4b0a1e41-d65d-45cc-9376-feaf5a787f39}, !- Layer 1
  {8e98b0b8-a820-4166-8658-0e573ca25356}, !- Layer 2
  {2375fa99-e647-45a2-8588-341550b61f71}, !- Layer 3
  {b2892be6-b6ff-4587-aa1c-f9c47b197ac8}; !- Layer 4

OS:StandardsInformation:Construction,
  {6b9d3e52-71c3-47ca-91e9-df993344313b}, !- Handle
  {f4a115ea-f58c-4943-862f-08183a2c1deb}, !- Construction Name
  ExteriorWall,                           !- Intended Surface Type
  Mass;                                   !- Standards Construction Type

OS:Material,
  {2375fa99-e647-45a2-8588-341550b61f71}, !- Handle
  Wall Insulation [40],                   !- Name
  MediumRough,                            !- Roughness
  0.0793999999999999,                     !- Thickness {m}
  0.0432,                                 !- Conductivity {W/m-K}
  91,                                     !- Density {kg/m3}
  836.999999999999,                       !- Specific Heat {J/kg-K}
  0.9,                                    !- Thermal Absorptance
  0.5,                                    !- Solar Absorptance
  0.5;                                    !- Visible Absorptance

OS:Construction,
  {6cf8a912-d893-443a-bdb1-ca527adc5ac1}, !- Handle
  ASHRAE 189.1-2009 ExtWall Mass ClimateZone 6, !- Name
  ,                                       !- Surface Rendering Name
  {4b0a1e41-d65d-45cc-9376-feaf5a787f39}, !- Layer 1
  {8e98b0b8-a820-4166-8658-0e573ca25356}, !- Layer 2
  {71c0aaad-9e67-450d-90e1-4d86c199e183}, !- Layer 3
  {b2892be6-b6ff-4587-aa1c-f9c47b197ac8}; !- Layer 4

OS:StandardsInformation:Construction,
  {5b030001-4081-4053-81ec-e4aa2cae69ba}, !- Handle
  {6cf8a912-d893-443a-bdb1-ca527adc5ac1}, !- Construction Name
  ExteriorWall,                           !- Intended Surface Type
  Mass;                                   !- Standards Construction Type

OS:Material,
  {71c0aaad-9e67-450d-90e1-4d86c199e183}, !- Handle
  Wall Insulation [42],                   !- Name
  MediumRough,                            !- Roughness
  0.0913999999999999,                     !- Thickness {m}
  0.0432,                                 !- Conductivity {W/m-K}
  91,                                     !- Density {kg/m3}
  836.999999999999,                       !- Specific Heat {J/kg-K}
  0.9,                                    !- Thermal Absorptance
  0.5,                                    !- Solar Absorptance
  0.5;                                    !- Visible Absorptance

OS:Construction,
  {788c01a0-62dd-4b91-8da8-2b06d6072861}, !- Handle
  ASHRAE 189.1-2009 ExtWall Mass ClimateZone 7-8, !- Name
  ,                                       !- Surface Rendering Name
  {4b0a1e41-d65d-45cc-9376-feaf5a787f39}, !- Layer 1
  {8e98b0b8-a820-4166-8658-0e573ca25356}, !- Layer 2
  {af3dc3e8-d7c0-45f5-bbb0-d82d546455c7}, !- Layer 3
  {b2892be6-b6ff-4587-aa1c-f9c47b197ac8}; !- Layer 4

OS:StandardsInformation:Construction,
  {938fb9ed-1a4d-44c8-8507-06be7369b201}, !- Handle
  {788c01a0-62dd-4b91-8da8-2b06d6072861}, !- Construction Name
  ExteriorWall,                           !- Intended Surface Type
  Mass;                                   !- Standards Construction Type

OS:Material,
  {af3dc3e8-d7c0-45f5-bbb0-d82d546455c7}, !- Handle
  Wall Insulation [44],                   !- Name
  MediumRough,                            !- Roughness
  0.1104,                                 !- Thickness {m}
  0.0432,                                 !- Conductivity {W/m-K}
  91,                                     !- Density {kg/m3}
  836.999999999999,                       !- Specific Heat {J/kg-K}
  0.9,                                    !- Thermal Absorptance
  0.5,                                    !- Solar Absorptance
  0.5;                                    !- Visible Absorptance

OS:Construction,
  {54826a9a-3b47-49dc-8ab5-eacaab6320cb}, !- Handle
  ASHRAE 189.1-2009 ExtWall Mass ClimateZone alt-res 1, !- Name
  ,                                       !- Surface Rendering Name
  {4b0a1e41-d65d-45cc-9376-feaf5a787f39}, !- Layer 1
  {8e98b0b8-a820-4166-8658-0e573ca25356}, !- Layer 2
  {2150aace-5b18-4337-96e5-be0bdb232c40}, !- Layer 3
  {b2892be6-b6ff-4587-aa1c-f9c47b197ac8}; !- Layer 4

OS:StandardsInformation:Construction,
  {c40c7827-f628-4c2a-b7e3-af1be830369e}, !- Handle
  {54826a9a-3b47-49dc-8ab5-eacaab6320cb}, !- Construction Name
  ExteriorWall,                           !- Intended Surface Type
  Mass;                                   !- Standards Construction Type

OS:Construction,
  {803b2602-5f39-4c83-890c-8dc708c14078}, !- Handle
  ASHRAE 189.1-2009 ExtWall Mass ClimateZone alt-res 2, !- Name
  ,                                       !- Surface Rendering Name
  {4b0a1e41-d65d-45cc-9376-feaf5a787f39}, !- Layer 1
  {8e98b0b8-a820-4166-8658-0e573ca25356}, !- Layer 2
  {ed0f9de4-b0cf-48f4-bf27-e9cf83a8a795}, !- Layer 3
  {b2892be6-b6ff-4587-aa1c-f9c47b197ac8}; !- Layer 4

OS:StandardsInformation:Construction,
  {2e2bf611-aa3d-4f8c-ab9e-14c03a672ae5}, !- Handle
  {803b2602-5f39-4c83-890c-8dc708c14078}, !- Construction Name
  ExteriorWall,                           !- Intended Surface Type
  Mass;                                   !- Standards Construction Type

OS:Construction,
  {45f27047-c73e-4a46-bdec-62b4ce6d19b4}, !- Handle
  ASHRAE 189.1-2009 ExtWall Mass ClimateZone alt-res 3, !- Name
  ,                                       !- Surface Rendering Name
  {4b0a1e41-d65d-45cc-9376-feaf5a787f39}, !- Layer 1
  {8e98b0b8-a820-4166-8658-0e573ca25356}, !- Layer 2
  {097db580-8b1a-47c9-a2dc-4e1bec6e9a30}, !- Layer 3
  {b2892be6-b6ff-4587-aa1c-f9c47b197ac8}; !- Layer 4

OS:StandardsInformation:Construction,
  {aeed93bb-663e-4de6-a48e-1741510cb934}, !- Handle
  {45f27047-c73e-4a46-bdec-62b4ce6d19b4}, !- Construction Name
  ExteriorWall,                           !- Intended Surface Type
  Mass;                                   !- Standards Construction Type

OS:Construction,
  {0a3169a6-799d-464a-9711-e6db784ea59b}, !- Handle
  ASHRAE 189.1-2009 ExtWall Mass ClimateZone alt-res 4, !- Name
  ,                                       !- Surface Rendering Name
  {4b0a1e41-d65d-45cc-9376-feaf5a787f39}, !- Layer 1
  {8e98b0b8-a820-4166-8658-0e573ca25356}, !- Layer 2
  {2375fa99-e647-45a2-8588-341550b61f71}, !- Layer 3
  {b2892be6-b6ff-4587-aa1c-f9c47b197ac8}; !- Layer 4

OS:StandardsInformation:Construction,
  {070540d6-28b6-4874-8d07-23dbeec55ecf}, !- Handle
  {0a3169a6-799d-464a-9711-e6db784ea59b}, !- Construction Name
  ExteriorWall,                           !- Intended Surface Type
  Mass;                                   !- Standards Construction Type

OS:Construction,
  {7d6933c3-c0e3-44f3-9f9b-d1be8a61933f}, !- Handle
  ASHRAE 189.1-2009 ExtWall Mass ClimateZone alt-res 5, !- Name
  ,                                       !- Surface Rendering Name
  {4b0a1e41-d65d-45cc-9376-feaf5a787f39}, !- Layer 1
  {8e98b0b8-a820-4166-8658-0e573ca25356}, !- Layer 2
  {71c0aaad-9e67-450d-90e1-4d86c199e183}, !- Layer 3
  {b2892be6-b6ff-4587-aa1c-f9c47b197ac8}; !- Layer 4

OS:StandardsInformation:Construction,
  {a13d8344-9642-4025-a341-597bf268c80d}, !- Handle
  {7d6933c3-c0e3-44f3-9f9b-d1be8a61933f}, !- Construction Name
  ExteriorWall,                           !- Intended Surface Type
  Mass;                                   !- Standards Construction Type

OS:Construction,
  {e2810b45-2657-4746-a494-65c3d3c35aa0}, !- Handle
  ASHRAE 189.1-2009 ExtWall Mass ClimateZone alt-res 6, !- Name
  ,                                       !- Surface Rendering Name
  {4b0a1e41-d65d-45cc-9376-feaf5a787f39}, !- Layer 1
  {8e98b0b8-a820-4166-8658-0e573ca25356}, !- Layer 2
  {af3dc3e8-d7c0-45f5-bbb0-d82d546455c7}, !- Layer 3
  {b2892be6-b6ff-4587-aa1c-f9c47b197ac8}; !- Layer 4

OS:StandardsInformation:Construction,
  {bfe3ea56-8d74-426a-b6d2-313a2f33f8f7}, !- Handle
  {e2810b45-2657-4746-a494-65c3d3c35aa0}, !- Construction Name
  ExteriorWall,                           !- Intended Surface Type
  Mass;                                   !- Standards Construction Type

OS:Construction,
  {86453acc-e977-4a10-8486-80da4fc94084}, !- Handle
  ASHRAE 189.1-2009 ExtWall Mass ClimateZone alt-res 7, !- Name
  ,                                       !- Surface Rendering Name
  {4b0a1e41-d65d-45cc-9376-feaf5a787f39}, !- Layer 1
  {8e98b0b8-a820-4166-8658-0e573ca25356}, !- Layer 2
  {af3dc3e8-d7c0-45f5-bbb0-d82d546455c7}, !- Layer 3
  {b2892be6-b6ff-4587-aa1c-f9c47b197ac8}; !- Layer 4

OS:StandardsInformation:Construction,
  {33fdcfc1-4768-43e8-bdc9-7f087b70876f}, !- Handle
  {86453acc-e977-4a10-8486-80da4fc94084}, !- Construction Name
  ExteriorWall,                           !- Intended Surface Type
  Mass;                                   !- Standards Construction Type

OS:Construction,
  {57cc9cd3-829e-417e-8e7f-aa814de22ae3}, !- Handle
  ASHRAE 189.1-2009 ExtWall Mass ClimateZone alt-res 8, !- Name