
OS:Version,
  {64718054-5c3e-4d1b-a7e0-14cde7e2999f}, !- Handle
  1.3.0;                                  !- Version Identifier

OS:Construction,
  {04780c91-b70d-44a4-8c9d-ad4fb582d1c5}, !- Handle
  ASHRAE 189.1-2009 AtticFloor ClimateZone 1-8, !- Name
  ,                                       !- Surface Rendering Name
  {c751a1e7-f170-4503-ae97-e15c12cf441e}, !- Layer 1
  {8236a0e1-469e-4999-acce-36db7a86a23b}, !- Layer 2
  {c751a1e7-f170-4503-ae97-e15c12cf441e}; !- Layer 3

OS:StandardsInformation:Construction,
  {ba20d0f4-d9a8-412e-8d97-088e66a6f6a8}, !- Handle
  {04780c91-b70d-44a4-8c9d-ad4fb582d1c5}, !- Construction Name
  AtticFloor,                             !- Intended Surface Type
  WoodFramed;                             !- Standards Construction Type

OS:Material,
  {c751a1e7-f170-4503-ae97-e15c12cf441e}, !- Handle
  1/2IN Gypsum,                           !- Name
  Smooth,                                 !- Roughness
  0.0127,                                 !- Thickness {m}
  0.16,                                   !- Conductivity {W/m-K}
  784.9,                                  !- Density {kg/m3}
  830.000000000001,                       !- Specific Heat {J/kg-K}
  0.9,                                    !- Thermal Absorptance
  0.92,                                   !- Solar Absorptance
  0.92;                                   !- Visible Absorptance

OS:Material,
  {8236a0e1-469e-4999-acce-36db7a86a23b}, !- Handle
  AtticFloor Insulation,                  !- Name
  MediumRough,                            !- Roughness
  0.2379,                                 !- Thickness {m}
  0.049,                                  !- Conductivity {W/m-K}
  265,                                    !- Density {kg/m3}
  836.800000000001,                       !- Specific Heat {J/kg-K}
  0.9,                                    !- Thermal Absorptance
  0.7,                                    !- Solar Absorptance
  0.7;                                    !- Visible Absorptance

OS:Construction,
  {161206da-8f7f-47c1-9a75-6f55221e9454}, !- Handle
  ASHRAE 189.1-2009 ExtRoof IEAD ClimateZone 1, !- Name
  ,                                       !- Surface Rendering Name
  {812df24f-4d76-4bc8-bc42-6012e9d43092}, !- Layer 1
  {3bae8625-fbd7-4e2b-99a0-4e8d2fb5073d}, !- Layer 2
  {09858498-6517-4445-b01f-7f2152c5a684}; !- Layer 3

OS:StandardsInformation:Construction,
  {8a50a306-312c-4828-820b-04073dfabaef}, !- Handle
  {161206da-8f7f-47c1-9a75-6f55221e9454}, !- Construction Name
  ExteriorRoof,                           !- Intended Surface Type
  IEAD;                                   !- Standards Construction Type

OS:Material,
  {812df24f-4d76-4bc8-bc42-6012e9d43092}, !- Handle
  Roof Membrane,                          !- Name
  VeryRough,                              !- Roughness
  0.0095,                                 !- Thickness {m}
  0.16,                                   !- Conductivity {W/m-K}
  1121.29,                                !- Density {kg/m3}
  1460,                                   !- Specific Heat {J/kg-K}
  0.9,                                    !- Thermal Absorptance
  0.7,                                    !- Solar Absorptance
  0.7;                                    !- Visible Absorptance

OS:Material,
  {3bae8625-fbd7-4e2b-99a0-4e8d2fb5073d}, !- Handle
  Roof Insulation [18],                   !- Name
  MediumRough,                            !- Roughness
  0.1693,                                 !- Thickness {m}
  0.049,                                  !- Conductivity {W/m-K}
  265,                                    !- Density {kg/m3}
  836.800000000001,                       !- Specific Heat {J/kg-K}
  0.9,                                    !- Thermal Absorptance
  0.7,                                    !- Solar Absorptance
  0.7;                                    !- Visible Absorptance

OS:Material,
  {09858498-6517-4445-b01f-7f2152c5a684}, !- Handle
  Metal Decking,                          !- Name
  MediumSmooth,                           !- Roughness
  0.0015,                                 !- Thickness {m}
  45.006,                                 !- Conductivity {W/m-K}
  7680,                                   !- Density {kg/m3}
  418.4,                                  !- Specific Heat {J/kg-K}
  0.9,                                    !- Thermal Absorptance
  0.7,                                    !- Solar Absorptance
  0.3;                                    !- Visible Absorptance

OS:Construction,
  {40d7b38e-ba61-47d8-b012-29a1df4fc81a}, !- Handle
  ASHRAE 189.1-2009 ExtRoof IEAD ClimateZone 2-5, !- Name
  ,                                       !- Surface Rendering Name
  {812df24f-4d76-4bc8-bc42-6012e9d43092}, !- Layer 1
  {304eb8a1-d947-4d41-8abf-19ec190bce76}, !- Layer 2
  {09858498-6517-4445-b01f-7f2152c5a684}; !- Layer 3

OS:StandardsInformation:Construction,
  {769be0cd-1ba9-4429-ab86-c6f9500b4dc2}, !- Handle
  {40d7b38e-ba61-47d8-b012-29a1df4fc81a}, !- Construction Name
  ExteriorRoof,                           !- Intended Surface Type
  IEAD;                                   !- Standards Construction Type

OS:Material,
  {304eb8a1-d947-4d41-8abf-19ec190bce76}, !- Handle
  Roof Insulation [21],                   !- Name
  MediumRough,                            !- Roughness
  0.2105,                                 !- Thickness {m}
  0.049,                                  !- Conductivity {W/m-K}
  265,                                    !- Density {kg/m3}
  836.800000000001,                       !- Specific Heat {J/kg-K}
  0.9,                                    !- Thermal Absorptance
  0.7,                                    !- Solar Absorptance
  0.7;                                    !- Visible Absorptance

OS:Construction,
  {2dc5c6b1-4d21-49f1-ac0d-10c40170f0b8}, !- Handle
  ASHRAE 189.1-2009 ExtRoof IEAD ClimateZone 6, !- Name
  ,                                       !- Surface Rendering Name
  {812df24f-4d76-4bc8-bc42-6012e9d43092}, !- Layer 1
  {3b7d6ad1-5798-44c7-a886-93fb551d075a}, !- Layer 2
  {09858498-6517-4445-b01f-7f2152c5a684}; !- Layer 3

OS:StandardsInformation:Construction,
  {43284e9e-5f48-4507-bfea-b2068b131c21}, !- Handle
  {2dc5c6b1-4d21-49f1-ac0d-10c40170f0b8}, !- Construction Name
  ExteriorRoof,                           !- Intended Surface Type
  IEAD;                                   !- Standards Construction Type

OS:Material,
  {3b7d6ad1-5798-44c7-a886-93fb551d075a}, !- Handle
  Roof Insulation [24],                   !- Name
  MediumRough,                            !- Roughness
  0.260100000000001,                      !- Thickness {m}
  0.049,                                  !- Conductivity {W/m-K}
  265,                                    !- Density {kg/m3}
  836.800000000001,                       !- Specific Heat {J/kg-K}
  0.9,                                    !- Thermal Absorptance
  0.7,                                    !- Solar Absorptance
  0.7;                                    !- Visible Absorptance

OS:Construction,
  {ba466a4d-102e-4727-95bf-2e179beeb621}, !- Handle
  ASHRAE 189.1-2009 ExtRoof IEAD ClimateZone 7-8, !- Name
  ,                                       !- Surface Rendering Name
  {812df24f-4d76-4bc8-bc42-6012e9d43092}, !- Layer 1
  {242e5322-4181-44ce-a10e-4c0920fcbbe5}, !- Layer 2
  {09858498-6517-4445-b01f-7f2152c5a684}; !- Layer 3

OS:StandardsInformation:Construction,
  {5cdc0788-98a8-47bd-a4bc-0c3d7742b0dd}, !- Handle
  {ba466a4d-102e-4727-95bf-2e179beeb621}, !- Construction Name
  ExteriorRoof,                           !- Intended Surface Type
  IEAD;                                   !- Standards Construction Type

OS:Material,
  {242e5322-4181-44ce-a10e-4c0920fcbbe5}, !- Handle
  Roof Insulation [26],                   !- Name
  MediumRough,                            !- Roughness
  0.2941,                                 !- Thickness {m}
  0.049,                                  !- Conductivity {W/m-K}
  265,                                    !- Density {kg/m3}
  836.800000000001,                       !- Specific Heat {J/kg-K}
  0.9,                                    !- Thermal Absorptance
  0.7,                                    !- Solar Absorptance
  0.7;                                    !- Visible Absorptance

OS:Construction,
  {658315bd-e296-4056-adc9-aed6e48ebb6e}, !- Handle
  ASHRAE 189.1-2009 ExtRoof Metal ClimateZone 1, !- Name
  ,                                       !- Surface Rendering Name
  {b3990a0a-85c3-494a-ac3e-d8e45e13cf93}, !- Layer 1
  {dcbee7ca-3626-43bd-8a3f-821c0483229a}; !- Layer 2

OS:StandardsInformation:Construction,
  {759e225a-8270-4808-b964-c8df03de1fb8}, !- Handle
  {658315bd-e296-4056-adc9-aed6e48ebb6e}, !- Construction Name
  ExteriorRoof,                           !- Intended Surface Type
  Metal;                                  !- Standards Construction Type

OS:Material,
  {b3990a0a-85c3-494a-ac3e-d8e45e13cf93}, !- Handle
  Metal Roofing,                          !- Name
  MediumSmooth,                           !- Roughness
  0.0015,                                 !- Thickness {m}
  45.006,                                 !- Conductivity {W/m-K}
  7680,                                   !- Density {kg/m3}
  418.4,                                  !- Specific Heat {J/kg-K}
  0.9,                                    !- Thermal Absorptance
  0.3,                                    !- Solar Absorptance
  0.3;                                    !- Visible Absorptance

OS:Material,
  {dcbee7ca-3626-43bd-8a3f-821c0483229a}, !- Handle
  Roof Insulation [19],                   !- Name
  MediumRough,                            !- Roughness
  0.1868,                                 !- Thickness {m}
  0.049,                                  !- Conductivity {W/m-K}
  265,                                    !- Density {kg/m3}
  836.800000000001,                       !- Specific Heat {J/kg-K}
  0.9,                                    !- Thermal Absorptance
  0.7,                                    !- Solar Absorptance
  0.7;                                    !- Visible Absorptance

OS:Construction,
  {3af2df19-26f6-47f0-b4fa-232f5d34df3f}, !- Handle
  ASHRAE 189.1-2009 ExtRoof Metal ClimateZone 2-5, !- Name
  ,                                       !- Surface Rendering Name
  {b3990a0a-85c3-494a-ac3e-d8e45e13cf93}, !- Layer 1
  {04d76b53-f1ce-4fdc-912c-87364042b45b}; !- Layer 2

OS:StandardsInformation:Construction,
  {abf3d865-c7f5-48d8-b01d-33221cb0a6f3}, !- Handle
  {3af2df19-26f6-47f0-b4fa-232f5d34df3f}, !- Construction Name
  ExteriorRoof,                           !- Intended Surface Type
  Metal;                                  !- Standards Construction Type

OS:Material,
  {04d76b53-f1ce-4fdc-912c-87364042b45b}, !- Handle
  Roof Insulation [22],                   !- Name
  MediumRough,                            !- Roughness
  0.2358,                                 !- Thickness {m}
  0.049,                                  !- Conductivity {W/m-K}
  265,                                    !- Density {kg/m3}
  836.800000000001,                       !- Specific Heat {J/kg-K}
  0.9,                                    !- Thermal Absorptance
  0.7,                                    !- Solar Absorptance
  0.7;                                    !- Visible Absorptance

OS:Construction,
  {824f5386-8f67-4754-b0f8-e5a804aa15ed}, !- Handle
  ASHRAE 189.1-2009 ExtRoof Metal ClimateZone 6, !- Name
  ,                                       !- Surface Rendering Name
  {b3990a0a-85c3-494a-ac3e-d8e45e13cf93}, !- Layer 1
  {70113b55-055d-4636-8e85-c2061cd14aaf}; !- Layer 2

OS:StandardsInformation:Construction,
  {1e1eb2ee-e303-45a4-8d07-c7584ea40a47}, !- Handle
  {824f5386-8f67-4754-b0f8-e5a804aa15ed}, !- Construction Name
  ExteriorRoof,                           !- Intended Surface Type
  Metal;                                  !- Standards Construction Type

OS:Material,
  {70113b55-055d-4636-8e85-c2061cd14aaf}, !- Handle
  Roof Insulation [25],                   !- Name
  MediumRough,                            !- Roughness
  0.263,                                  !- Thickness {m}
  0.049,                                  !- Conductivity {W/m-K}
  265,                                    !- Density {kg/m3}
  836.800000000001,                       !- Specific Heat {J/kg-K}
  0.9,                                    !- Thermal Absorptance
  0.7,                                    !- Solar Absorptance
  0.7;                                    !- Visible Absorptance

OS:Construction,
  {a9fc5a2f-0c8e-432b-9c57-ac03e0207c50}, !- Handle
  ASHRAE 189.1-2009 ExtRoof Metal ClimateZone 7-8, !- Name
  ,                                       !- Surface Rendering Name
  {b3990a0a-85c3-494a-ac3e-d8e45e13cf93}, !- Layer 1
  {a882cf6e-d2f7-470b-91cb-08909cbd3344}; !- Layer 2

OS:StandardsInformation:Construction,
  {e6bbbf72-1e69-4c36-b11b-ef223ba9e036}, !- Handle
  {a9fc5a2f-0c8e-432b-9c57-ac03e0207c50}, !- Construction Name
  ExteriorRoof,                           !- Intended Surface Type
  Metal;                                  !- Standards Construction Type

OS:Material,
  {a882cf6e-d2f7-470b-91cb-08909cbd3344}, !- Handle
  Roof Insulation [27],                   !- Name
  MediumRough,                            !- Roughness
  0.297000000000001,                      !- Thickness {m}
  0.049,                                  !- Conductivity {W/m-K}
  265,                                    !- Density {kg/m3}
  836.800000000001,                       !- Specific Heat {J/kg-K}
  0.9,                                    !- Thermal Absorptance
  0.7,                                    !- Solar Absorptance
  0.7;                                    !- Visible Absorptance

OS:Construction,
  {d0f074ab-08bd-4076-9199-a6f6edb06f70}, !- Handle
  ASHRAE 189.1-2009 ExtWall Mass ClimateZone 1, !- Name
  ,                                       !- Surface Rendering Name
  {4fb27311-4876-47ae-af5a-3a17a575dd0f}, !- Layer 1
  {828b4b9a-c244-48df-8ed6-a28e794f790c}, !- Layer 2
  {d8cfcffa-0147-4f91-b414-4e828131267e}, !- Layer 3
  {c751a1e7-f170-4503-ae97-e15c12cf441e}; !- Layer 4

OS:StandardsInformation:Construction,
  {840929af-2567-4730-9624-4a60a168db47}, !- Handle
  {d0f074ab-08bd-4076-9199-a6f6edb06f70}, !- Construction Name
  ExteriorWall,                           !- Intended Surface Type
  Mass;                                   !- Standards Construction Type

OS:Material,
  {4fb27311-4876-47ae-af5a-3a17a575dd0f}, !- Handle
  1IN Stucco,                             !- Name
  Smooth,                                 !- Roughness
  0.0253,                                 !- Thickness {m}
  0.691799999999999,                      !- Conductivity {W/m-K}
  1858,                                   !- Density {kg/m3}
  836.999999999999,                       !- Specific Heat {J/kg-K}
  0.9,                                    !- Thermal Absorptance
  0.92,                                   !- Solar Absorptance
  0.92;                                   !- Visible Absorptance

OS:Material,
  {828b4b9a-c244-48df-8ed6-a28e794f790c}, !- Handle
  8IN Concrete HW,                        !- Name
  MediumRough,                            !- Roughness
  0.2033,                                 !- Thickness {m}
  1.72959999999999,                       !- Conductivity {W/m-K}
  2242.99999999999,                       !- Density {kg/m3}
  836.999999999999,                       !- Specific Heat {J/kg-K}
  0.9,                                    !- Thermal Absorptance
  0.65,                                   !- Solar Absorptance
  0.65;                                   !- Visible Absorptance

OS:Material,
  {d8cfcffa-0147-4f91-b414-4e828131267e}, !- Handle
  Wall Insulation [31],                   !- Name
  MediumRough,                            !- Roughness
  0.0337000000000001,                     !- Thickness {m}
  0.0432,                                 !- Conductivity {W/m-K}
  91,                                     !- Density {kg/m3}
  836.999999999999,                       !- Specific Heat {J/kg-K}
  0.9,                                    !- Thermal Absorptance
  0.5,                                    !- Solar Absorptance
  0.5;                                    !- Visible Absorptance

OS:Construction,
  {1a94d7a5-71b4-4fd8-8af0-001e007c5e57}, !- Handle
  ASHRAE 189.1-2009 ExtWall Mass ClimateZone 2, !- Name
  ,                                       !- Surface Rendering Name
  {4fb27311-4876-47ae-af5a-3a17a575dd0f}, !- Layer 1
  {828b4b9a-c244-48df-8ed6-a28e794f790c}, !- Layer 2
  {35760a09-4268-466f-8c1b-0f373f86f70c}, !- Layer 3
  {c751a1e7-f170-4503-ae97-e15c12cf441e}; !- Layer 4

OS:StandardsInformation:Construction,
  {ad906183-df5a-434a-b157-f3ff57f1cb1d}, !- Handle
  {1a94d7a5-71b4-4fd8-8af0-001e007c5e57}, !- Construction Name
  ExteriorWall,                           !- Intended Surface Type
  Mass;                                   !- Standards Construction Type

OS:Material,
  {35760a09-4268-466f-8c1b-0f373f86f70c}, !- Handle
  Wall Insulation [35],                   !- Name
  MediumRough,                            !- Roughness
  0.0452,                                 !- Thickness {m}
  0.0432,                                 !- Conductivity {W/m-K}
  91,                                     !- Density {kg/m3}
  836.999999999999,                       !- Specific Heat {J/kg-K}
  0.9,                                    !- Thermal Absorptance
  0.5,                                    !- Solar Absorptance
  0.5;                                    !- Visible Absorptance

OS:Construction,
  {92b3fd7c-cdd0-4fd2-acdc-549b776e69a9}, !- Handle
  ASHRAE 189.1-2009 ExtWall Mass ClimateZone 3, !- Name
  ,                                       !- Surface Rendering Name
  {4fb27311-4876-47ae-af5a-3a17a575dd0f}, !- Layer 1
  {828b4b9a-c244-48df-8ed6-a28e794f790c}, !- Layer 2
  {022bbc41-feda-4d7f-a404-0905802a1a19}, !- Layer 3
  {c751a1e7-f170-4503-ae97-e15c12cf441e}; !- Layer 4

OS:StandardsInformation:Construction,
  {9405ffdc-275b-4b29-8a4b-5f08a6a4b0e2}, !- Handle
  {92b3fd7c-cdd0-4fd2-acdc-549b776e69a9}, !- Construction Name
  ExteriorWall,                           !- Intended Surface Type
  Mass;                                   !- Standards Construction Type

OS:Material,
  {022bbc41-feda-4d7f-a404-0905802a1a19}, !- Handle
  Wall Insulation [36],                   !- Name
  MediumRough,                            !- Roughness
  0.0565999999999999,                     !- Thickness {m}
  0.0432,                                 !- Conductivity {W/m-K}
  91,                                     !- Density {kg/m3}
  836.999999999999,                       !- Specific Heat {J/kg-K}
  0.9,                                    !- Thermal Absorptance
  0.5,                                    !- Solar Absorptance
  0.5;                                    !- Visible Absorptance

OS:Construction,
  {b09e4e34-13f0-4290-8ff2-c0d2f80f0d2e}, !- Handle
  ASHRAE 189.1-2009 ExtWall Mass ClimateZone 4, !- Name
  ,                                       !- Surface Rendering Name
  {4fb27311-4876-47ae-af5a-3a17a575dd0f}, !- Layer 1
  {828b4b9a-c244-48df-8ed6-a28e794f790c}, !- Layer 2
  {b51a2821-433a-478f-a000-6cc957c284e9}, !- Layer 3
  {c751a1e7-f170-4503-ae97-e15c12cf441e}; !- Layer 4

OS:StandardsInformation:Construction,
  {52f4df5f-fdde-437c-a905-df8fcf68cfc6}, !- Handle
  {b09e4e34-13f0-4290-8ff2-c0d2f80f0d2e}, !- Construction Name
  ExteriorWall,                           !- Intended Surface Type
  Mass;                                   !- Standards Construction Type

OS:Material,
  {b51a2821-433a-478f-a000-6cc957c284e9}, !- Handle
  Wall Insulation [37],                   !- Name
  MediumRough,                            !- Roughness
  0.0680999999999999,                     !- Thickness {m}
  0.0432,                                 !- Conductivity {W/m-K}
  91,                                     !- Density {kg/m3}
  836.999999999999,                       !- Specific Heat {J/kg-K}
  0.9,                                    !- Thermal Absorptance
  0.5,                                    !- Solar Absorptance
  0.5;                                    !- Visible Absorptance

OS:Construction,
  {5d6b33d7-07d4-41cd-a819-06bd835bb2ef}, !- Handle
  ASHRAE 189.1-2009 ExtWall Mass ClimateZone 5, !- Name
  ,                                       !- Surface Rendering Name
  {4fb27311-4876-47ae-af5a-3a17a575dd0f}, !- Layer 1
  {828b4b9a-c244-48df-8ed6-a28e794f790c}, !- Layer 2
  {57a657fe-817b-4aa5-93e0-5994642f0925}, !- Layer 3
  {c751a1e7-f170-4503-ae97-e15c12cf441e}; !- Layer 4

OS:StandardsInformation:Construction,
  {0502e50d-7bba-4734-8e47-86db5fbae281}, !- Handle
  {5d6b33d7-07d4-41cd-a819-06bd835bb2ef}, !- Construction Name
  ExteriorWall,                           !- Intended Surface Type
  Mass;                                   !- Standards Construction Type

OS:Material,
  {57a657fe-817b-4aa5-93e0-5994642f0925}, !- Handle
  Wall Insulation [40],                   !- Name
  MediumRough,                            !- Roughness
  0.0793999999999999,                     !- Thickness {m}
  0.0432,                                 !- Conductivity {W/m-K}
  91,                                     !- Density {kg/m3}
  836.999999999999,                       !- Specific Heat {J/kg-K}
  0.9,                                    !- Thermal Absorptance
  0.5,                                    !- Solar Absorptance
  0.5;                                    !- Visible Absorptance

OS:Construction,
  {c5970e7b-b4a9-4a87-a1f5-fd60fc12a4b1}, !- Handle
  ASHRAE 189.1-2009 ExtWall Mass ClimateZone 6, !- Name
  ,                                       !- Surface Rendering Name
  {4fb27311-4876-47ae-af5a-3a17a575dd0f}, !- Layer 1
  {828b4b9a-c244-48df-8ed6-a28e794f790c}, !- Layer 2
  {aeae9ef5-041f-4342-a893-b8ac294cb614}, !- Layer 3
  {c751a1e7-f170-4503-ae97-e15c12cf441e}; !- Layer 4

OS:StandardsInformation:Construction,
  {33bd7cb0-b992-48b5-b583-beffd75ac60d}, !- Handle
  {c5970e7b-b4a9-4a87-a1f5-fd60fc12a4b1}, !- Construction Name
  ExteriorWall,                           !- Intended Surface Type
  Mass;                                   !- Standards Construction Type

OS:Material,
  {aeae9ef5-041f-4342-a893-b8ac294cb614}, !- Handle
  Wall Insulation [42],                   !- Name
  MediumRough,                            !- Roughness
  0.0913999999999999,                     !- Thickness {m}
  0.0432,                                 !- Conductivity {W/m-K}
  91,                                     !- Density {kg/m3}
  836.999999999999,                       !- Specific Heat {J/kg-K}
  0.9,                                    !- Thermal Absorptance
  0.5,                                    !- Solar Absorptance
  0.5;                                    !- Visible Absorptance

OS:Construction,
  {f899bc8a-b68e-4d83-a7ed-abf156408ad0}, !- Handle
  ASHRAE 189.1-2009 ExtWall Mass ClimateZone 7-8, !- Name
  ,                                       !- Surface Rendering Name
  {4fb27311-4876-47ae-af5a-3a17a575dd0f}, !- Layer 1
  {828b4b9a-c244-48df-8ed6-a28e794f790c}, !- Layer 2
  {6f4cc9f8-aff2-4b58-b24e-5ec6dfd34b4a}, !- Layer 3
  {c751a1e7-f170-4503-ae97-e15c12cf441e}; !- Layer 4

OS:StandardsInformation:Construction,
  {6661f4a2-653b-4910-b131-8eb3f7b3415b}, !- Handle
  {f899bc8a-b68e-4d83-a7ed-abf156408ad0}, !- Construction Name
  ExteriorWall,                           !- Intended Surface Type
  Mass;                                   !- Standards Construction Type

OS:Material,
  {6f4cc9f8-aff2-4b58-b24e-5ec6dfd34b4a}, !- Handle
  Wall Insulation [44],                   !- Name
  MediumRough,                            !- Roughness
  0.1104,                                 !- Thickness {m}
  0.0432,                                 !- Conductivity {W/m-K}
  91,                                     !- Density {kg/m3}
  836.999999999999,                       !- Specific Heat {J/kg-K}
  0.9,                                    !- Thermal Absorptance
  0.5,                                    !- Solar Absorptance
  0.5;                                    !- Visible Absorptance

OS:Construction,
  {c818d5c9-e34a-4362-8234-cc1d68898214}, !- Handle
  ASHRAE 189.1-2009 ExtWall Mass ClimateZone alt-res 1, !- Name
  ,                                       !- Surface Rendering Name
  {4fb27311-4876-47ae-af5a-3a17a575dd0f}, !- Layer 1
  {828b4b9a-c244-48df-8ed6-a28e794f790c}, !- Layer 2
  {35760a09-4268-466f-8c1b-0f373f86f70c}, !- Layer 3
  {c751a1e7-f170-4503-ae97-e15c12cf441e}; !- Layer 4

OS:StandardsInformation:Construction,
  {5741c231-7484-430e-831b-6fa137fc86e6}, !- Handle
  {c818d5c9-e34a-4362-8234-cc1d68898214}, !- Construction Name
  ExteriorWall,                           !- Intended Surface Type
  Mass;                                   !- Standards Construction Type

OS:Construction,
  {fc1e3fb7-2af3-42ba-ad92-c3fb42069c95}, !- Handle
  ASHRAE 189.1-2009 ExtWall Mass ClimateZone alt-res 2, !- Name
  ,                                       !- Surface Rendering Name
  {4fb27311-4876-47ae-af5a-3a17a575dd0f}, !- Layer 1
  {828b4b9a-c244-48df-8ed6-a28e794f790c}, !- Layer 2
  {022bbc41-feda-4d7f-a404-0905802a1a19}, !- Layer 3
  {c751a1e7-f170-4503-ae97-e15c12cf441e}; !- Layer 4

OS:StandardsInformation:Construction,
  {4d74b6ba-02a9-4362-b4d9-fea60263d7f4}, !- Handle
  {fc1e3fb7-2af3-42ba-ad92-c3fb42069c95}, !- Construction Name
  ExteriorWall,                           !- Intended Surface Type
  Mass;                                   !- Standards Construction Type

OS:Construction,
  {d63b8fe7-9517-4ba8-9006-c1b7edac0b4c}, !- Handle
  ASHRAE 189.1-2009 ExtWall Mass ClimateZone alt-res 3, !- Name
  ,                                       !- Surface Rendering Name
  {4fb27311-4876-47ae-af5a-3a17a575dd0f}, !- Layer 1
  {828b4b9a-c244-48df-8ed6-a28e794f790c}, !- Layer 2
  {b51a2821-433a-478f-a000-6cc957c284e9}, !- Layer 3
  {c751a1e7-f170-4503-ae97-e15c12cf441e}; !- Layer 4

OS:StandardsInformation:Construction,
  {8e8b795f-c4bb-4281-9381-55b45a17f8a5}, !- Handle
  {d63b8fe7-9517-4ba8-9006-c1b7edac0b4c}, !- Construction Name
  ExteriorWall,                           !- Intended Surface Type
  Mass;                                   !- Standards Construction Type

OS:Construction,
  {5de1819f-2610-499a-8f13-d8350853956c}, !- Handle
  ASHRAE 189.1-2009 ExtWall Mass ClimateZone alt-res 4, !- Name
  ,                                       !- Surface Rendering Name
  {4fb27311-4876-47ae-af5a-3a17a575dd0f}, !- Layer 1
  {828b4b9a-c244-48df-8ed6-a28e794f790c}, !- Layer 2
  {57a657fe-817b-4aa5-93e0-5994642f0925}, !- Layer 3
  {c751a1e7-f170-4503-ae97-e15c12cf441e}; !- Layer 4

OS:StandardsInformation:Construction,
  {3ba43f38-d3e2-4209-89c3-cbc7b0473f1d}, !- Handle
  {5de1819f-2610-499a-8f13-d8350853956c}, !- Construction Name
  ExteriorWall,                           !- Intended Surface Type
  Mass;                                   !- Standards Construction Type

OS:Construction,
  {b10e5f7a-164c-47e3-99a2-0f1e969865d2}, !- Handle
  ASHRAE 189.1-2009 ExtWall Mass ClimateZone alt-res 5, !- Name
  ,                                       !- Surface Rendering Name
  {4fb27311-4876-47ae-af5a-3a17a575dd0f}, !- Layer 1
  {828b4b9a-c244-48df-8ed6-a28e794f790c}, !- Layer 2
  {aeae9ef5-041f-4342-a893-b8ac294cb614}, !- Layer 3
  {c751a1e7-f170-4503-ae97-e15c12cf441e}; !- Layer 4

OS:StandardsInformation:Construction,
  {63291b06-2da1-4315-bb18-d969557a4b42}, !- Handle
  {b10e5f7a-164c-47e3-99a2-0f1e969865d2}, !- Construction Name
  ExteriorWall,                           !- Intended Surface Type
  Mass;                                   !- Standards Construction Type

OS:Construction,
  {d4699ecc-a048-4045-85d9-e17fe2034e79}, !- Handle
  ASHRAE 189.1-2009 ExtWall Mass ClimateZone alt-res 6, !- Name
  ,                                       !- Surface Rendering Name
  {4fb27311-4876-47ae-af5a-3a17a575dd0f}, !- Layer 1
  {828b4b9a-c244-48df-8ed6-a28e794f790c}, !- Layer 2
  {6f4cc9f8-aff2-4b58-b24e-5ec6dfd34b4a}, !- Layer 3
  {c751a1e7-f170-4503-ae97-e15c12cf441e}; !- Layer 4

OS:StandardsInformation:Construction,
  {a1473913-5809-458a-a119-f5a87f65a61d}, !- Handle
  {d4699ecc-a048-4045-85d9-e17fe2034e79}, !- Construction Name
  ExteriorWall,                           !- Intended Surface Type
  Mass;                                   !- Standards Construction Type

OS:Construction,
  {bff7abee-2e79-4124-ad3f-38b210b0416c}, !- Handle
  ASHRAE 189.1-2009 ExtWall Mass ClimateZone alt-res 7, !- Name
  ,                                       !- Surface Rendering Name
  {4fb27311-4876-47ae-af5a-3a17a575dd0f}, !- Layer 1
  {828b4b9a-c244-48df-8ed6-a28e794f790c}, !- Layer 2
  {6f4cc9f8-aff2-4b58-b24e-5ec6dfd34b4a}, !- Layer 3
  {c751a1e7-f170-4503-ae97-e15c12cf441e}; !- Layer 4

OS:StandardsInformation:Construction,
  {49f6b210-b69b-4dec-9086-fcdcb86098fd}, !- Handle
  {bff7abee-2e79-4124-ad3f-38b210b0416c}, !- Construction Name
  ExteriorWall,                           !- Intended Surface Type
  Mass;                                   !- Standards Construction Type

OS:Construction,
  {88c829e5-1229-4cb4-82ee-d3209b4c8a50}, !- Handle
  ASHRAE 189.1-2009 ExtWall Mass ClimateZone alt-res 8, !- Name