
OS:Version,
  {20f3f746-1e23-4344-80d1-b7a5b25aaf78}, !- Handle
  0.11.5;                                 !- Version Identifier

OS:Schedule:Constant,
  {3f74d41b-be6d-465f-ae21-a3115db67bd3}, !- Handle
  Always On Discrete,                     !- Name
  {9cb10ae7-4643-4709-b9f2-1b1879bc7b73}, !- Schedule Type Limits Name
  1;                                      !- Value

OS:ScheduleTypeLimits,
  {9cb10ae7-4643-4709-b9f2-1b1879bc7b73}, !- Handle
  Always On Discrete Limits,              !- Name
  0,                                      !- Lower Limit Value {BasedOnField A4}
  1,                                      !- Upper Limit Value {BasedOnField A4}
  Discrete,                               !- Numeric Type
  Availability;                           !- Unit Type

OS:Building,
  {6e223be2-9c2e-424d-bd2a-2836c6f7df41}, ! Handle
  Stand-alone Retail,                     ! Name
  ,                                       ! Building Type
  -0,                                     ! North Axis
  ,                                       ! Nominal Floor to Floor Height
  {f4e383c2-6509-43b2-93f3-ed4e76ffc08d}, ! Space Type Name
  {b2a688af-5c0e-4bb8-ae58-22e594ce3465}, ! Default Construction Set Name
  ;                                       ! Default Schedule Set Name

OS:Construction,
  {331ef0a0-260a-461f-8981-3b9cc9c56db1}, ! Handle
  000 AtticRoof ClimateZone 1-8,          ! Name
  {914ab1b9-61a8-4509-8540-7213d635e5b2}, ! Surface Rendering Name
  {4447391c-7ba5-4aa6-9ca2-e11d39b619b5}, ! Layer 1
  {c27e7e32-f6c3-4f32-8023-af4cd427c28e}; ! Layer 2

OS:Construction,
  {c66d83b0-6b28-4ad6-a7e8-b7133b3f32ef}, ! Handle
  000 ExtSlabCarpet 4in ClimateZone 1-8,  ! Name
  {6d52311a-ad50-4f6f-a907-7cd566abfce3}, ! Surface Rendering Name
  {2f242d45-345d-48be-8dfc-818903ec033b}, ! Layer 1
  {61b9a965-983f-4446-b467-a8f768e14305}; ! Layer 2

OS:Construction,
  {a7a79507-0c7c-493e-aadc-4aaa056730f1}, ! Handle
  000 ExtSlabCarpet 8in ClimateZone 1-8,  ! Name
  {5274ab04-242e-4c44-a8a6-584cae1cae82}, ! Surface Rendering Name
  {b8ca1372-d20d-4184-9d15-c1a90a8199bf}, ! Layer 1
  {61b9a965-983f-4446-b467-a8f768e14305}; ! Layer 2

OS:Construction,
  {af9cf76a-1673-4cfc-82f4-4413a26a7246}, ! Handle
  000 ExtSlab 4in ClimateZone 1-8,        ! Name
  {7d7dbe6f-6a24-4c0b-9eb5-9a0a702f9c3d}, ! Surface Rendering Name
  {2f242d45-345d-48be-8dfc-818903ec033b}; ! Layer 1

OS:Construction,
  {a7f5e890-f903-4f8f-8d28-feadf9bfb9cf}, ! Handle
  000 ExtSlab 8in ClimateZone 1-8,        ! Name
  {adc94672-4079-46a8-bc7e-f6e2072e7b27}, ! Surface Rendering Name
  {b8ca1372-d20d-4184-9d15-c1a90a8199bf}; ! Layer 1

OS:Construction,
  {0e6752fb-85bf-4e10-97d4-3cfb9568dacc}, ! Handle
  000 Exterior Door,                      ! Name
  {b5ce544e-b195-45a8-bf7a-db515d97a8aa}, ! Surface Rendering Name
  {f2e612e6-82d0-4d5a-9e65-d228b7cb591f}, ! Layer 1
  {9c567d96-46f1-470c-8054-8af9f24c3e69}; ! Layer 2

OS:Construction,
  {c3c4810f-39d7-419e-8c3b-b1776ca856b5}, ! Handle
  000 Exterior Floor,                     ! Name
  {ef8a8a7d-7f1e-466d-ae60-d3631a35c436}, ! Surface Rendering Name
  {8bc43bbf-70c0-4b04-aadc-d8c0550a9ff8}, ! Layer 1
  {5f7aa45c-cf36-4f99-8b47-988566dc8c56}; ! Layer 2

OS:Construction,
  {e4d5b092-0c28-4479-9385-bd4c50228dfc}, ! Handle
  000 Exterior Roof,                      ! Name
  {1f1e1318-9e86-44a1-9080-9c64fb7e5ec3}, ! Surface Rendering Name
  {5d189218-e09f-44e7-bd36-f4c61584951d}, ! Layer 1
  {517db8f9-3c8e-41c4-a2d8-440fcebf1940}, ! Layer 2
  {84da8b02-1b79-4969-bc3b-fc922beff76a}; ! Layer 3

OS:Construction,
  {86faa356-5e34-459d-86cc-e8aa2d1c6d27}, ! Handle
  000 Exterior Wall,                      ! Name
  {013f2fa0-699e-493c-a5d0-b8b337f217c8}, ! Surface Rendering Name
  {7b7b81b5-642d-416e-8867-cfa37896004f}, ! Layer 1
  {5f7aa45c-cf36-4f99-8b47-988566dc8c56}, ! Layer 2
  {8bc43bbf-70c0-4b04-aadc-d8c0550a9ff8}, ! Layer 3
  {b2121ca8-9142-45e4-9758-0a42101e346a}, ! Layer 4
  {49d303eb-8c13-4a66-82ab-49a4ae36aa27}; ! Layer 5

OS:Construction,
  {7d564a10-f4f5-41ca-98f3-768d7343fc75}, ! Handle
  000 Exterior Window,                    ! Name
  {319a5fbf-9f61-48c8-9177-22d36771a0af}, ! Surface Rendering Name
  {4ef20199-95db-44e6-b6ba-7cdedf50a273}, ! Layer 1
  {4d7f41e3-2e0d-4da3-be37-a5b9dde2b71e}, ! Layer 2
  {4ef20199-95db-44e6-b6ba-7cdedf50a273}; ! Layer 3

OS:Construction,
  {f3589a60-f3eb-47e5-8606-0297ec79821a}, ! Handle
  000 Interior Ceiling,                   ! Name
  {da876adf-de55-4ce1-ad17-36307c0c6821}, ! Surface Rendering Name
  {5d189218-e09f-44e7-bd36-f4c61584951d}, ! Layer 1
  {517db8f9-3c8e-41c4-a2d8-440fcebf1940}, ! Layer 2
  {84da8b02-1b79-4969-bc3b-fc922beff76a}; ! Layer 3

OS:Construction,
  {00ef5edd-b74d-4c1b-940a-ba0cff89f78d}, ! Handle
  000 Interior Door,                      ! Name
  {419abe5f-6a1a-4be7-96ad-eac9ba5374d2}, ! Surface Rendering Name
  {682c3ae1-3eac-4440-9f00-02fc7c074e7b}; ! Layer 1

OS:Construction,
  {152ed371-ce14-405a-aba5-b55ebe87e940}, ! Handle
  000 Interior Floor,                     ! Name
  {6f501232-3d8e-487f-ae68-17b8368dd5d7}, ! Surface Rendering Name
  {84da8b02-1b79-4969-bc3b-fc922beff76a}, ! Layer 1
  {517db8f9-3c8e-41c4-a2d8-440fcebf1940}, ! Layer 2
  {5d189218-e09f-44e7-bd36-f4c61584951d}; ! Layer 3

OS:Construction,
  {a32eaa1a-82ee-4ccd-9a88-43169e58664f}, ! Handle
  000 Interior Partition,                 ! Name
  {0666327f-2740-40cc-8818-02b0b33c61e4}, ! Surface Rendering Name
  {682c3ae1-3eac-4440-9f00-02fc7c074e7b}; ! Layer 1

OS:Construction,
  {d16571e7-30dc-4fbd-9f40-7becf023f5dd}, ! Handle
  000 Interior Wall,                      ! Name
  {1b66db6f-2f18-41f7-99eb-7e33712f8a70}, ! Surface Rendering Name
  {49d303eb-8c13-4a66-82ab-49a4ae36aa27}, ! Layer 1
  {b2121ca8-9142-45e4-9758-0a42101e346a}, ! Layer 2
  {49d303eb-8c13-4a66-82ab-49a4ae36aa27}; ! Layer 3

OS:Construction,
  {36468372-9cfc-4c3a-8c01-62d5077f70e1}, ! Handle
  000 Interior Window,                    ! Name
  {dc857522-da7d-4ba8-962d-2ade0d290f06}, ! Surface Rendering Name
  {4ef20199-95db-44e6-b6ba-7cdedf50a273}; ! Layer 1

OS:Construction,
  {ea5f60d4-3d5c-4429-8227-36928fb0aab4}, ! Handle
  ASHRAE 189.1-2009 AtticFloor ClimateZone 1-8, ! Name
  {9de9bea9-3020-442b-9054-0c2e754e3325}, ! Surface Rendering Name
  {270bbdda-5a28-457b-9469-deb456d0da0a}, ! Layer 1
  {cdcf59ef-b963-4cd8-8ab4-58389c572edc}, ! Layer 2
  {270bbdda-5a28-457b-9469-deb456d0da0a}; ! Layer 3

OS:Construction,
  {f86464f4-78eb-42ca-b47b-65f22e03b95c}, ! Handle
  ASHRAE 189.1-2009 ExtRoof IEAD ClimateZone 1, ! Name
  {545740ee-d5d8-4aec-a3b8-00a84b2097b0}, ! Surface Rendering Name
  {4447391c-7ba5-4aa6-9ca2-e11d39b619b5}, ! Layer 1
  {4df3bcfa-d085-4935-8660-97c1d10a15ab}, ! Layer 2
  {c27e7e32-f6c3-4f32-8023-af4cd427c28e}; ! Layer 3

OS:Construction,
  {ce46d28d-b06b-44f6-a8f6-94641ca5290d}, ! Handle
  ASHRAE 189.1-2009 ExtRoof IEAD ClimateZone 2-5, ! Name
  {755cef00-e04b-4faf-ab6c-7cbff9ebf349}, ! Surface Rendering Name
  {4447391c-7ba5-4aa6-9ca2-e11d39b619b5}, ! Layer 1
  {472c0d08-b35f-4a50-a1fd-b66302c55e49}, ! Layer 2
  {c27e7e32-f6c3-4f32-8023-af4cd427c28e}; ! Layer 3

OS:Construction,
  {626ff953-bceb-4042-9f71-8f7dafeb0423}, ! Handle
  ASHRAE 189.1-2009 ExtRoof IEAD ClimateZone 6, ! Name
  {cb4d6cc8-c013-44d5-8ccc-2b36b97f5a61}, ! Surface Rendering Name
  {4447391c-7ba5-4aa6-9ca2-e11d39b619b5}, ! Layer 1
  {7d3bd90d-106a-4670-829d-27fc06e7c521}, ! Layer 2
  {c27e7e32-f6c3-4f32-8023-af4cd427c28e}; ! Layer 3

OS:Construction,
  {a168dd3d-ecda-4642-bfb9-9c7c2810b714}, ! Handle
  ASHRAE 189.1-2009 ExtRoof IEAD ClimateZone 7-8, ! Name
  {a300364f-e20d-463b-bfa1-057174f7c690}, ! Surface Rendering Name
  {4447391c-7ba5-4aa6-9ca2-e11d39b619b5}, ! Layer 1
  {fa6c519e-c78f-46f7-bf12-58e6368e4543}, ! Layer 2
  {c27e7e32-f6c3-4f32-8023-af4cd427c28e}; ! Layer 3

OS:Construction,
  {8a418fb6-5eac-47a4-aff3-3b7adc7071f4}, ! Handle
  ASHRAE 189.1-2009 ExtRoof Metal ClimateZone 1, ! Name
  {560b8a0d-95d8-43ca-b9a4-5f372c8258e5}, ! Surface Rendering Name
  {46a5665a-7dbb-491d-8492-030d8c75d997}, ! Layer 1
  {adb9d630-322b-4344-aef3-d260b1dfa50b}; ! Layer 2

OS:Construction,
  {efe9c051-071e-4c89-b32a-581f6a2ec352}, ! Handle
  ASHRAE 189.1-2009 ExtRoof Metal ClimateZone 2-5, ! Name
  {3efcf87e-2a03-469f-ac37-aa6cd00cf363}, ! Surface Rendering Name
  {46a5665a-7dbb-491d-8492-030d8c75d997}, ! Layer 1
  {afd2ecf8-cbeb-4208-8beb-3beb637cc8b1}; ! Layer 2

OS:Construction,
  {b191d2ec-6e38-416c-af1b-c428e7ce9378}, ! Handle
  ASHRAE 189.1-2009 ExtRoof Metal ClimateZone 6, ! Name
  {d5a0e361-fb54-4e56-aa10-342e25fc3b12}, ! Surface Rendering Name
  {46a5665a-7dbb-491d-8492-030d8c75d997}, ! Layer 1
  {71d21d85-7f89-4fcb-9fbb-4be46208cad0}; ! Layer 2

OS:Construction,
  {418dddf2-5826-41e5-9f87-b941ae930af9}, ! Handle
  ASHRAE 189.1-2009 ExtRoof Metal ClimateZone 7-8, ! Name
  {392bbb76-8d83-4a52-8415-c8370cb2e8ce}, ! Surface Rendering Name
  {46a5665a-7dbb-491d-8492-030d8c75d997}, ! Layer 1
  {67ca9d6a-75b4-4544-b011-cfa4425ce647}; ! Layer 2

OS:Construction,
  {dfaf0b70-ffc4-4d9a-9458-3871aa8613a6}, ! Handle
  ASHRAE 189.1-2009 ExtWall Mass ClimateZone 1, ! Name
  {2b6ddd30-6cda-4e5d-a270-cb0e2ee046a5}, ! Surface Rendering Name
  {d229fe1b-5187-4af9-be47-fd20df96eaa6}, ! Layer 1
  {fb84eb08-0936-4cc4-9fa3-418e7e0ede49}, ! Layer 2
  {0c13c6cb-14ac-4433-8d17-2f98e25b0b4f}, ! Layer 3
  {270bbdda-5a28-457b-9469-deb456d0da0a}; ! Layer 4

OS:Construction,
  {f95cf4b1-1912-4aee-b4d5-4faf1c1119b3}, ! Handle
  ASHRAE 189.1-2009 ExtWall Mass ClimateZone 2, ! Name
  {85c04dc0-98e1-4c8e-930b-d3f95dddf5d4}, ! Surface Rendering Name
  {d229fe1b-5187-4af9-be47-fd20df96eaa6}, ! Layer 1
  {fb84eb08-0936-4cc4-9fa3-418e7e0ede49}, ! Layer 2
  {c87ec2c4-6f04-4f45-ac87-db638a6ba00f}, ! Layer 3
  {270bbdda-5a28-457b-9469-deb456d0da0a}; ! Layer 4

OS:Construction,
  {914a73e5-aad5-4061-aa35-8447996b92ea}, ! Handle
  ASHRAE 189.1-2009 ExtWall Mass ClimateZone 3, ! Name
  {d500685a-30d4-4c33-82ab-1f246cec343f}, ! Surface Rendering Name
  {d229fe1b-5187-4af9-be47-fd20df96eaa6}, ! Layer 1
  {fb84eb08-0936-4cc4-9fa3-418e7e0ede49}, ! Layer 2
  {eef777d4-6086-4fd4-8809-94d8537852ee}, ! Layer 3
  {270bbdda-5a28-457b-9469-deb456d0da0a}; ! Layer 4

OS:Construction,
  {2e1b8f9e-fe90-449f-acdc-38c0ccd0345d}, ! Handle
  ASHRAE 189.1-2009 ExtWall Mass ClimateZone 4, ! Name
  {abbe92a5-6652-45ac-aca0-fd752d427c9d}, ! Surface Rendering Name
  {d229fe1b-5187-4af9-be47-fd20df96eaa6}, ! Layer 1
  {fb84eb08-0936-4cc4-9fa3-418e7e0ede49}, ! Layer 2
  {82ea4ec3-2ba9-4bee-b066-e82e1c1fced3}, ! Layer 3
  {270bbdda-5a28-457b-9469-deb456d0da0a}; ! Layer 4

OS:Construction,
  {b2039654-d595-4179-a665-e55a9d017410}, ! Handle
  ASHRAE 189.1-2009 ExtWall Mass ClimateZone 5, ! Name
  {d38c647e-16f8-43d5-b592-fb86a491b0a5}, ! Surface Rendering Name
  {d229fe1b-5187-4af9-be47-fd20df96eaa6}, ! Layer 1
  {fb84eb08-0936-4cc4-9fa3-418e7e0ede49}, ! Layer 2
  {1a1acef9-4c38-44c6-bd57-c53ed834944d}, ! Layer 3
  {270bbdda-5a28-457b-9469-deb456d0da0a}; ! Layer 4

OS:Construction,
  {e59b1b26-80b9-40c9-876b-8469c404e83b}, ! Handle
  ASHRAE 189.1-2009 ExtWall Mass ClimateZone 6, ! Name
  {46329250-12c2-4b01-8f06-b6b2f2fdda1e}, ! Surface Rendering Name
  {d229fe1b-5187-4af9-be47-fd20df96eaa6}, ! Layer 1
  {fb84eb08-0936-4cc4-9fa3-418e7e0ede49}, ! Layer 2
  {790609e3-af4c-41ae-9b0c-9857e6fff891}, ! Layer 3
  {270bbdda-5a28-457b-9469-deb456d0da0a}; ! Layer 4

OS:Construction,
  {d240c2cb-4fa4-4686-8706-7ef365e80c4c}, ! Handle
  ASHRAE 189.1-2009 ExtWall Mass ClimateZone 7-8, ! Name
  {c47582f5-4b9f-4fce-9bea-f67db30c3776}, ! Surface Rendering Name
  {d229fe1b-5187-4af9-be47-fd20df96eaa6}, ! Layer 1
  {fb84eb08-0936-4cc4-9fa3-418e7e0ede49}, ! Layer 2
  {df85fbcf-f770-4a83-a43f-a512b172ce8c}, ! Layer 3
  {270bbdda-5a28-457b-9469-deb456d0da0a}; ! Layer 4

OS:Construction,
  {2442fac0-563c-4d59-99ef-3e17a39f9c33}, ! Handle
  ASHRAE 189.1-2009 ExtWall Mass ClimateZone alt-res 1, ! Name
  {49db6d3b-32a3-4a91-8260-4da47234818e}, ! Surface Rendering Name
  {d229fe1b-5187-4af9-be47-fd20df96eaa6}, ! Layer 1
  {fb84eb08-0936-4cc4-9fa3-418e7e0ede49}, ! Layer 2
  {c87ec2c4-6f04-4f45-ac87-db638a6ba00f}, ! Layer 3
  {270bbdda-5a28-457b-9469-deb456d0da0a}; ! Layer 4

OS:Construction,
  {7eca356b-48cd-4b44-9e1d-a8086df1d575}, ! Handle
  ASHRAE 189.1-2009 ExtWall Mass ClimateZone alt-res 2, ! Name
  {686617cf-9ca7-4ca0-80e3-15a0d7ddfadd}, ! Surface Rendering Name
  {d229fe1b-5187-4af9-be47-fd20df96eaa6}, ! Layer 1
  {fb84eb08-0936-4cc4-9fa3-418e7e0ede49}, ! Layer 2
  {eef777d4-6086-4fd4-8809-94d8537852ee}, ! Layer 3
  {270bbdda-5a28-457b-9469-deb456d0da0a}; ! Layer 4

OS:Construction,
  {93af1a25-5cf7-4788-805c-01d4efa36d2a}, ! Handle
  ASHRAE 189.1-2009 ExtWall Mass ClimateZone alt-res 3, ! Name
  {e4e2f407-a804-4596-a69c-d3a77b713449}, ! Surface Rendering Name
  {d229fe1b-5187-4af9-be47-fd20df96eaa6}, ! Layer 1
  {fb84eb08-0936-4cc4-9fa3-418e7e0ede49}, ! Layer 2
  {82ea4ec3-2ba9-4bee-b066-e82e1c1fced3}, ! Layer 3
  {270bbdda-5a28-457b-9469-deb456d0da0a}; ! Layer 4

OS:Construction,
  {df937440-c7b9-4159-af5d-71e1e0f21ead}, ! Handle
  ASHRAE 189.1-2009 ExtWall Mass ClimateZone alt-res 4, ! Name
  {83a23675-4770-4b6e-a374-fa353cc0bdaf}, ! Surface Rendering Name
  {d229fe1b-5187-4af9-be47-fd20df96eaa6}, ! Layer 1
  {fb84eb08-0936-4cc4-9fa3-418e7e0ede49}, ! Layer 2
  {1a1acef9-4c38-44c6-bd57-c53ed834944d}, ! Layer 3
  {270bbdda-5a28-457b-9469-deb456d0da0a}; ! Layer 4

OS:Construction,
  {719bf1da-24f5-4ea1-baaa-0ac994b26931}, ! Handle
  ASHRAE 189.1-2009 ExtWall Mass ClimateZone alt-res 5, ! Name
  {5f97afdc-944a-4a93-b90a-3fbbfed3312b}, ! Surface Rendering Name
  {d229fe1b-5187-4af9-be47-fd20df96eaa6}, ! Layer 1
  {fb84eb08-0936-4cc4-9fa3-418e7e0ede49}, ! Layer 2
  {790609e3-af4c-41ae-9b0c-9857e6fff891}, ! Layer 3
  {270bbdda-5a28-457b-9469-deb456d0da0a}; ! Layer 4

OS:Construction,
  {da122f93-d61f-49a1-88a4-bd99f41d24bd}, ! Handle
  ASHRAE 189.1-2009 ExtWall Mass ClimateZone alt-res 6, ! Name
  {fa91dbd6-66a8-4861-968e-d8f8a76e9839}, ! Surface Rendering Name
  {d229fe1b-5187-4af9-be47-fd20df96eaa6}, ! Layer 1
  {fb84eb08-0936-4cc4-9fa3-418e7e0ede49}, ! Layer 2
  {df85fbcf-f770-4a83-a43f-a512b172ce8c}, ! Layer 3
  {270bbdda-5a28-457b-9469-deb456d0da0a}; ! Layer 4

OS:Construction,
  {07fa98c2-0407-4ff9-9c47-c1ed9f4b38f9}, ! Handle
  ASHRAE 189.1-2009 ExtWall Mass ClimateZone alt-res 7, ! Name
  {a717fff4-b2fe-4266-b02c-0b90bb568ff1}, ! Surface Rendering Name
  {d229fe1b-5187-4af9-be47-fd20df96eaa6}, ! Layer 1
  {fb84eb08-0936-4cc4-9fa3-418e7e0ede49}, ! Layer 2
  {df85fbcf-f770-4a83-a43f-a512b172ce8c}, ! Layer 3
  {270bbdda-5a28-457b-9469-deb456d0da0a}; ! Layer 4

OS:Construction,
  {9950ffce-24dd-4b57-b524-42c275ebfc00}, ! Handle
  ASHRAE 189.1-2009 ExtWall Mass ClimateZone alt-res 8, ! Name
  {06398089-1115-4592-80fb-cb8997c5c802}, ! Surface Rendering Name
  {d229fe1b-5187-4af9-be47-fd20df96eaa6}, ! Layer 1
  {fb84eb08-0936-4cc4-9fa3-418e7e0ede49}, ! Layer 2
  {4aa411d7-6f12-4290-bd4b-a10b742fecbc}, ! Layer 3
  {270bbdda-5a28-457b-9469-deb456d0da0a}; ! Layer 4

OS:Construction,
  {b3f5406d-ad10-471f-b18d-c004ffffc434}, ! Handle
  ASHRAE 189.1-2009 ExtWall Metal ClimateZone 1-3, ! Name
  {723ccc41-a52d-4e22-a37f-dc89b8fc024d}, ! Surface Rendering Name
  {a7032bc8-eda8-417d-86d3-f20902907e29}, ! Layer 1
  {c5e99906-99bf-4eb8-ba2b-99b5c47386f4}, ! Layer 2
  {270bbdda-5a28-457b-9469-deb456d0da0a}; ! Layer 3

OS:Construction,
  {f0f6fc94-9976-42a2-bc4d-14926c619169}, ! Handle
  ASHRAE 189.1-2009 ExtWall Metal ClimateZone 4-8, ! Name
  {fc0cd24c-8a03-4b75-947b-ee5e7815877a}, ! Surface Rendering Name
  {a7032bc8-eda8-417d-86d3-f20902907e29}, ! Layer 1
  {3cad7219-a24d-41d6-be7b-1bf4305ddace}, ! Layer 2
  {270bbdda-5a28-457b-9469-deb456d0da0a}; ! Layer 3

OS:Construction,
  {45518525-7619-4632-99ae-e18551e4f0a2}, ! Handle
  ASHRAE 189.1-2009 ExtWall SteelFrame ClimateZone 1-3, ! Name
  {49f49352-62ef-48fe-8710-94958ca66f7d}, ! Surface Rendering Name
  {7d05748e-c878-404f-98e8-bb4158f4d67b}, ! Layer 1
  {d3fb2e75-499e-4247-8726-651b916efc58}, ! Layer 2
  {270bbdda-5a28-457b-9469-deb456d0da0a}; ! Layer 3

OS:Construction,
  {fbed32a9-1d18-444c-96e8-8f2b561a2170}, ! Handle
  ASHRAE 189.1-2009 ExtWall SteelFrame ClimateZone 4-8, ! Name
  {21b15a82-6122-4cb8-b637-2babd70a7fb6}, ! Surface Rendering Name
  {7d05748e-c878-404f-98e8-bb4158f4d67b}, ! Layer 1
  {39459176-56c4-452d-a26a-45f64aa96e39}, ! Layer 2
  {270bbdda-5a28-457b-9469-deb456d0da0a}; ! Layer 3

OS:Construction,
  {6b318d94-2e07-4b34-abeb-1a422a7a8b79}, ! Handle
  ASHRAE 189.1-2009 ExtWall WoodFrame ClimateZone 1-4, ! Name
  {186b5a84-a415-4647-8962-6d8e18640d43}, ! Surface Rendering Name
  {d2b6343f-4cb7-4336-83d5-f4cd2e60ccb6}, ! Layer 1
  {461d3dd5-7017-499c-bccb-9c574073e2dd}, ! Layer 2
  {270bbdda-5a28-457b-9469-deb456d0da0a}; ! Layer 3

OS:Construction,
  {87f4b6bb-41ed-4847-b5b5-2ee801da355e}, ! Handle
  ASHRAE 189.1-2009 ExtWall WoodFrame ClimateZone 5, ! Name
  {2b42be01-2bb4-45ef-b0e2-f0b7d20f9aec}, ! Surface Rendering Name
  {d2b6343f-4cb7-4336-83d5-f4cd2e60ccb6}, ! Layer 1
  {5cd60691-9c40-4cab-b2c6-da8d2572daa6}, ! Layer 2
  {270bbdda-5a28-457b-9469-deb456d0da0a}; ! Layer 3

OS:Construction,
  {6859f9e3-ba8a-4035-8383-dc2f63ef6429}, ! Handle
  ASHRAE 189.1-2009 ExtWall WoodFrame ClimateZone 6-8, ! Name
  {00007381-d977-4c47-ae81-e4e83b55bc07}, ! Surface Rendering Name
  {d2b6343f-4cb7-4336-83d5-f4cd2e60ccb6}, ! Layer 1
  {697f900e-dd88-40e2-9d75-253ecb7e1a02}, ! Layer 2
  {270bbdda-5a28-457b-9469-deb456d0da0a}; ! Layer 3

OS:Construction,
  {e556117a-0198-477f-939d-49625bfacd2a}, ! Handle
  ASHRAE 189.1-2009 ExtWindow ClimateZone 1, ! Name
  {e903633c-6056-4b8a-af21-72f1611d50ed}, ! Surface Rendering Name
  {95998177-cf60-4241-803b-cf49115b074f}; ! Layer 1

OS:Construction,
  {5dba446a-d7cf-4df6-b927-31f4713e03ac}, ! Handle
  ASHRAE 189.1-2009 ExtWindow ClimateZone 2, ! Name
  {3d796cc6-e577-4ce0-968d-1db97ca7f922}, ! Surface Rendering Name
  {f8de697c-fe25-4b1d-a710-e89dcc837805}; ! Layer 1

OS:Construction,
  {5298c103-f71d-4ad4-b4d7-1074117bb128}, ! Handle
  ASHRAE 189.1-2009 ExtWindow ClimateZone 3, ! Name
  {ff4121f5-f6c4-4949-bccf-3a7fc902c241}, ! Surface Rendering Name
  {8aa43142-8a81-491c-a833-d51b537ee84a}; ! Layer 1

OS:Construction,
  {112b52f2-ec3f-4890-8164-81b7fb615080}, ! Handle
  ASHRAE 189.1-2009 ExtWindow ClimateZone 4-5, ! Name
  {726956d0-bd6a-4b3b-9ca0-126593b9b75c}, ! Surface Rendering Name
  {c210cb23-f856-4d80-aa50-8ccddf13a142}; ! Layer 1

OS:Construction,
  {78715ef4-b804-4b9e-b52f-a80dc46ea5bd}, ! Handle
  ASHRAE 189.1-2009 ExtWindow ClimateZone 6, ! Name
  {c2228768-2e9d-4e67-9773-84588944f946}, ! Surface Rendering Name
  {1818666a-9dbd-4c8a-96cc-df1db9f6f95c}; ! Layer 1

OS:Construction,
  {12bc5f13-966d-4824-bc3c-d7e1fb4a72ed}, ! Handle
  ASHRAE 189.1-2009 ExtWindow ClimateZone 7-8, ! Name
  {4dc8b9f7-d536-482d-a503-3f1baed4b97d}, ! Surface Rendering Name
  {2b480625-3267-41df-88ab-128740cd0651}; ! Layer 1

OS:Construction,
  {cf553d74-2e82-41e8-8ca0-d979f9770de5}, ! Handle
  ASHRAE 189.1-2009 ExtWindow ClimateZone alt-res 4-5, ! Name
  {35826894-9361-47b8-80a1-108d4fd1fc11}, ! Surface Rendering Name
  {1818666a-9dbd-4c8a-96cc-df1db9f6f95c}; ! Layer 1

OS:Construction,
  {7f3c6c5e-93ab-41c2-84d4-84d48859e6b2}, ! Handle
  ASHRAE 90.1-2004 AtticFloor ClimateZone 1-5, ! Name
  {145163e3-0936-4c71-9845-c4587316fa36}, ! Surface Rendering Name
  {270bbdda-5a28-457b-9469-deb456d0da0a}, ! Layer 1
  {aa4db81c-5dd8-4587-9cb8-02478394a1f0}, ! Layer 2
  {270bbdda-5a28-457b-9469-deb456d0da0a}; ! Layer 3

OS:Construction,
  {cdb20cdb-d731-48ff-8030-52853cd8fb03}, ! Handle
  ASHRAE 90.1-2004 AtticFloor ClimateZone 6-8, ! Name
  {0de74b75-2da5-454d-af38-2292a7accab2}, ! Surface Rendering Name
  {270bbdda-5a28-457b-9469-deb456d0da0a}, ! Layer 1
  {69e44e3e-62dd-446a-bb00-f8a8721fd770}, ! Layer 2
  {270bbdda-5a28-457b-9469-deb456d0da0a}; ! Layer 3

OS:Construction,
  {1131a4b8-6fa3-4e5e-834e-3a68e765d134}, ! Handle
  ASHRAE 90.1-2004 ExtRoof IEAD ClimateZone 1-4, ! Name
  {5078cd04-e5dd-482d-b798-636bd69c381d}, ! Surface Rendering Name
  {4447391c-7ba5-4aa6-9ca2-e11d39b619b5}, ! Layer 1
  {2f172a15-8ee7-4c38-8986-c646a069dc3c}, ! Layer 2
  {c27e7e32-f6c3-4f32-8023-af4cd427c28e}; ! Layer 3

OS:Construction,
  {87ca763f-dd00-4e97-8a8e-44a21f89aecb}, ! Handle
  ASHRAE 90.1-2004 ExtRoof IEAD ClimateZone 5-6, ! Name
  {6fd2b4cb-3f68-4356-a944-138b0ae1888f}, ! Surface Rendering Name
  {4447391c-7ba5-4aa6-9ca2-e11d39b619b5}, ! Layer 1
  {a4e660b1-c245-475a-9d79-9bca8d36b661}, ! Layer 2
  {c27e7e32-f6c3-4f32-8023-af4cd427c28e}; ! Layer 3

OS:Construction,
  {1caa28f0-c508-4dd7-9b0d-7dbf4d464353}, ! Handle
  ASHRAE 90.1-2004 ExtRoof IEAD ClimateZone 7, ! Name
  {0316234c-5f31-4557-ab37-8ed97d8da02d}, ! Surface Rendering Name
  {4447391c-7ba5-4aa6-9ca2-e11d39b619b5}, ! Layer 1
  {2f172a15-8ee7-4c38-8986-c646a069dc3c}, ! Layer 2
  {c27e7e32-f6c3-4f32-8023-af4cd427c28e}; ! Layer 3

OS:Construction,
  {637c1d87-abc9-4b78-b488-f153ef5731a8}, ! Handle
  ASHRAE 90.1-2004 ExtRoof IEAD ClimateZone 8, ! Name
  {2888675d-9054-4f84-b22d-246678add2be}, ! Surface Rendering Name
  {4447391c-7ba5-4aa6-9ca2-e11d39b619b5}, ! Layer 1
  {829eefd9-14dc-4cdc-ae4a-bfa5130907a5}, ! Layer 2
  {c27e7e32-f6c3-4f32-8023-af4cd427c28e}; ! Layer 3

OS:Construction,
  {fdacb693-cd54-4b02-809d-fffb68b9900f}, ! Handle
  ASHRAE 90.1-2004 ExtRoof Metal ClimateZone 1, ! Name
  {60791242-89b4-4c73-bc39-f2151a47c436}, ! Surface Rendering Name
  {46a5665a-7dbb-491d-8492-030d8c75d997}; ! Layer 1

OS:Construction,
  {f4362813-3bd1-456c-a675-440618221973}, ! Handle
  ASHRAE 90.1-2004 ExtRoof Metal ClimateZone 2, ! Name
  {a6625c02-33aa-4f11-a771-814228a45f79}, ! Surface Rendering Name
  {46a5665a-7dbb-491d-8492-030d8c75d997}, ! Layer 1
  {9f88e859-1566-4815-965f-d5db1db2d488}; ! Layer 2

OS:Construction,
  {d92f7377-0c50-4187-82cc-163ef76cfd52}, ! Handle
  ASHRAE 90.1-2004 ExtRoof Metal ClimateZone 3-4, ! Name
  {2ce084e8-af23-4b84-ba3b-e1920b66877b}, ! Surface Rendering Name
  {46a5665a-7dbb-491d-8492-030d8c75d997}, ! Layer 1
  {533e75b6-f95f-4cac-903d-8d054ddf89b4}; ! Layer 2

OS:Construction,
  {f9e6a624-2776-4221-b5b0-c34d7d4bbdd5}, ! Handle
  ASHRAE 90.1-2004 ExtRoof Metal ClimateZone 5-6, ! Name
  {4cacbb95-f51d-47a1-ab9d-104c24b72aaa}, ! Surface Rendering Name
  {46a5665a-7dbb-491d-8492-030d8c75d997}, ! Layer 1
  {e1e9ed54-4b5a-4095-b00a-0880510b08ae}; ! Layer 2

OS:Construction,
  {0bcbcb5d-2313-45bf-a06d-faaa0bc6b123}, ! Handle
  ASHRAE 90.1-2004 ExtRoof Metal ClimateZone 7, ! Name
  {6c6538be-3b65-41aa-bc38-eb1d9c2433fd}, ! Surface Rendering Name
  {46a5665a-7dbb-491d-8492-030d8c75d997}, ! Layer 1
  {533e75b6-f95f-4cac-903d-8d054ddf89b4}; ! Layer 2

OS:Construction,
  {144ca254-66f6-462b-8e3d-46e8b640be10}, ! Handle
  ASHRAE 90.1-2004 ExtRoof Metal ClimateZone 8, ! Name
  {ade28fa1-7bb6-46e6-ae46-141202bb7d5f}, ! Surface Rendering Name
  {46a5665a-7dbb-491d-8492-030d8c75d997}, ! Layer 1
  {ce95bbc0-981e-4988-87ed-b4aabbb8bf63}; ! Layer 2

OS:Construction,
  {5f0beabc-8890-4f2d-affb-e1e86649b89b}, ! Handle
  ASHRAE 90.1-2004 ExtWall Mass ClimateZone 1-2, ! Name
  {dd4d1090-2c6d-407d-b81c-bb1ac5703183}, ! Surface Rendering Name
  {d229fe1b-5187-4af9-be47-fd20df96eaa6}, ! Layer 1
  {a8338ea9-4a74-429d-abbf-ce68cfb2bb0d}, ! Layer 2
  {270bbdda-5a28-457b-9469-deb456d0da0a}; ! Layer 3

OS:Construction,
  {c7ad66fa-e950-40fa-8b06-2c27098899f7}, ! Handle
  ASHRAE 90.1-2004 ExtWall Mass ClimateZone 3-4, ! Name
  {d1211d45-ec07-4e7d-980a-773dda7571bf}, ! Surface Rendering Name
  {d229fe1b-5187-4af9-be47-fd20df96eaa6}, ! Layer 1
  {a8338ea9-4a74-429d-abbf-ce68cfb2bb0d}, ! Layer 2
  {87f9400f-fe4a-48f6-ac1e-4b59c464052d}, ! Layer 3
  {270bbdda-5a28-457b-9469-deb456d0da0a}; ! Layer 4

OS:Construction,
  {cb3b9a06-cb20-487e-9cc4-74e6737ae093}, ! Handle
  ASHRAE 90.1-2004 ExtWall Mass ClimateZone 5, ! Name
  {6e4f790c-11f3-47db-9cd0-ccb1290fd4fd}, ! Surface Rendering Name
  {d229fe1b-5187-4af9-be47-fd20df96eaa6}, ! Layer 1
  {a8338ea9-4a74-429d-abbf-ce68cfb2bb0d}, ! Layer 2
  {db079f22-1972-4fdf-b2c0-7e6ca08d378a}, ! Layer 3
  {270bbdda-5a28-457b-9469-deb456d0da0a}; ! Layer 4

OS:Construction,
  {c713a8b7-2599-41b9-8ef8-dad509df323a}, ! Handle
  ASHRAE 90.1-2004 ExtWall Mass ClimateZone 6, ! Name
  {88e28402-d659-4f0d-8b45-9f1f48b568e5}, ! Surface Rendering Name
  {d229fe1b-5187-4af9-be47-fd20df96eaa6}, ! Layer 1
  {a8338ea9-4a74-429d-abbf-ce68cfb2bb0d}, ! Layer 2
  {396492f9-4762-4ffd-a8e1-835cd154aac0}, ! Layer 3
  {270bbdda-5a28-457b-9469-deb456d0da0a}; ! Layer 4

OS:Construction,
  {04e485ee-bfe3-446a-95b9-3930502513e1}, ! Handle
  ASHRAE 90.1-2004 ExtWall Mass ClimateZone 7, ! Name
  {6773ce1d-d393-41a5-8cc8-32f68d5ea30f}, ! Surface Rendering Name
  {d229fe1b-5187-4af9-be47-fd20df96eaa6}, ! Layer 1
  {a8338ea9-4a74-429d-abbf-ce68cfb2bb0d}, ! Layer 2
  {98a47bfa-331c-42af-a919-fbd320817359}, ! Layer 3
  {270bbdda-5a28-457b-9469-deb456d0da0a}; ! Layer 4

OS:Construction,
  {5137f1fc-dcaa-45d2-b5c4-020e62c90f5c}, ! Handle
  ASHRAE 90.1-2004 ExtWall Mass ClimateZone 8, ! Name
  {9ffa68fa-d9b2-44c6-964e-49b6b7a5a5f9}, ! Surface Rendering Name
  {d229fe1b-5187-4af9-be47-fd20df96eaa6}, ! Layer 1
  {a8338ea9-4a74-429d-abbf-ce68cfb2bb0d}, ! Layer 2
  {82f8a9b2-53a5-4c2a-8832-04f7964c1dd8}, ! Layer 3
  {270bbdda-5a28-457b-9469-deb456d0da0a}; ! Layer 4

OS:Construction,
  {3386e067-55e5-40d6-8517-84cfd3a17655}, ! Handle
  ASHRAE 90.1-2004 ExtWall Mass ClimateZone alt-res 1-2, ! Name
  {18464d4e-9649-4b61-b7d3-b1cbbf57b7b5}, ! Surface Rendering Name
  {d229fe1b-5187-4af9-be47-fd20df96eaa6}, ! Layer 1
  {a8338ea9-4a74-429d-abbf-ce68cfb2bb0d}, ! Layer 2
  {87f9400f-fe4a-48f6-ac1e-4b59c464052d}, ! Layer 3
  {270bbdda-5a28-457b-9469-deb456d0da0a}; ! Layer 4

OS:Construction,
  {7afc666f-bdec-413e-8338-f3bda434a177}, ! Handle
  ASHRAE 90.1-2004 ExtWall Mass ClimateZone alt-res 3, ! Name
  {302e97d3-acc5-4298-ac25-5d1bbffca2f0}, ! Surface Rendering Name
  {d229fe1b-5187-4af9-be47-fd20df96eaa6}, ! Layer 1
  {a8338ea9-4a74-429d-abbf-ce68cfb2bb0d}, ! Layer 2
  {db079f22-1972-4fdf-b2c0-7e6ca08d378a}, ! Layer 3
  {270bbdda-5a28-457b-9469-deb456d0da0a}; ! Layer 4

OS:Construction,
  {ecb39a1b-c93e-4a00-ae57-000cafb281b4}, ! Handle
  ASHRAE 90.1-2004 ExtWall Mass ClimateZone alt-res 4, ! Name
  {53086855-289b-4c15-97c6-04897bb6bc92}, ! Surface Rendering Name
  {d229fe1b-5187-4af9-be47-fd20df96eaa6}, ! Layer 1
  {a8338ea9-4a74-429d-abbf-ce68cfb2bb0d}, ! Layer 2
  {396492f9-4762-4ffd-a8e1-835cd154aac0}, ! Layer 3
  {270bbdda-5a28-457b-9469-deb456d0da0a}; ! Layer 4

OS:Construction,
  {7b1f2bce-6618-469d-b23f-848126011492}, ! Handle
  ASHRAE 90.1-2004 ExtWall Mass ClimateZone alt-res 5-6, ! Name
  {e27c7e25-f91d-4a44-a0c7-4626dce5eb77}, ! Surface Rendering Name
  {d229fe1b-5187-4af9-be47-fd20df96eaa6}, ! Layer 1
  {a8338ea9-4a74-429d-abbf-ce68cfb2bb0d}, ! Layer 2
  {98a47bfa-331c-42af-a919-fbd320817359}, ! Layer 3
  {270bbdda-5a28-457b-9469-deb456d0da0a}; ! Layer 4

OS:Construction,
  {aba96606-c160-4eca-b031-519a5186f34f}, ! Handle
  ASHRAE 90.1-2004 ExtWall Mass ClimateZone alt-res 7, ! Name
  {45df18ef-8a78-4c5e-b06f-ac7c06df7adf}, ! Surface Rendering Name
  {d229fe1b-5187-4af9-be47-fd20df96eaa6}, ! Layer 1
  {a8338ea9-4a74-429d-abbf-ce68cfb2bb0d}, ! Layer 2
  {82f8a9b2-53a5-4c2a-8832-04f7964c1dd8}, ! Layer 3
  {270bbdda-5a28-457b-9469-deb456d0da0a}; ! Layer 4

OS:Construction,
  {16c7b921-d9a3-46e6-8cdd-fa0ceb106b7f}, ! Handle
  ASHRAE 90.1-2004 ExtWall Mass ClimateZone alt-res 8, ! Name
  {b07dc16e-5d0b-47bf-b916-fecfe3b9558d}, ! Surface Rendering Name
  {d229fe1b-5187-4af9-be47-fd20df96eaa6}, ! Layer 1
  {a8338ea9-4a74-429d-abbf-ce68cfb2bb0d}, ! Layer 2
  {249ed3a0-a919-4c3c-b084-da48d068222c}, ! Layer 3
  {270bbdda-5a28-457b-9469-deb456d0da0a}; ! Layer 4

OS:Construction,
  {9e5f07d2-42ec-4232-8a1f-d99811b26f9f}, ! Handle
  ASHRAE 90.1-2004 ExtWall Metal ClimateZone 1, ! Name
  {b255aa30-f4d2-4f1a-90a4-352d04fee00a}, ! Surface Rendering Name
  {a7032bc8-eda8-417d-86d3-f20902907e29}, ! Layer 1
  {270bbdda-5a28-457b-9469-deb456d0da0a}; ! Layer 2

OS:Construction,
  {e9950ce5-21bc-4a79-b0e6-f1d8e1aac136}, ! Handle
  ASHRAE 90.1-2004 ExtWall Metal ClimateZone 2-3, ! Name
  {53dc2631-4d6c-4e26-b65a-1e622192d38b}, ! Surface Rendering Name
  {a7032bc8-eda8-417d-86d3-f20902907e29}, ! Layer 1
  {68f51113-dca8-4016-b22c-ddd4e5a5f219}, ! Layer 2
  {270bbdda-5a28-457b-9469-deb456d0da0a}; ! Layer 3

OS:Construction,
  {d47bc5af-7e79-41ac-9f80-991e9383ac9c}, ! Handle
  ASHRAE 90.1-2004 ExtWall Metal ClimateZone 4, ! Name
  {3f0ab9f3-0623-4fa6-9496-cf75c2d11641}, ! Surface Rendering Name
  {a7032bc8-eda8-417d-86d3-f20902907e29}, ! Layer 1
  {5d29bd05-58b9-40da-b27a-18a1c96dd0e5}, ! Layer 2
  {270bbdda-5a28-457b-9469-deb456d0da0a}; ! Layer 3

OS:Construction,
  {e68125b9-021b-40bd-9017-dd6671413c6e}, ! Handle
  ASHRAE 90.1-2004 ExtWall Metal ClimateZone 5, ! Name
  {17cf6040-850b-4011-be2e-df3b2f94384a}, ! Surface Rendering Name
  {a7032bc8-eda8-417d-86d3-f20902907e29}, ! Layer 1
  {e78d9764-01f1-43c8-9c50-a086178a6ad5}, ! Layer 2
  {270bbdda-5a28-457b-9469-deb456d0da0a}; ! Layer 3

OS:Construction,
  {e3cb1da5-3d0f-4829-9010-aa3088ae2385}, ! Handle
  ASHRAE 90.1-2004 ExtWall Metal ClimateZone 6-8, ! Name
  {dab4e765-f554-43d2-ad94-5b1edc11e706}, ! Surface Rendering Name