
OS:Version,
  {f05ee99c-dbd3-4c8b-ab9e-4690249ba59d}, !- Handle
  1.4.0;                                  !- Version Identifier

OS:Construction,
  {1083d2be-f9e4-4a6d-9197-2cf523adffbe}, !- Handle
  ASHRAE 189.1-2009 AtticFloor ClimateZone 1-8, !- Name
  ,                                       !- Surface Rendering Name
  {2521bf96-eeaa-4033-8fed-a77fd13a2fc4}, !- Layer 1
  {757d9385-b048-44b8-bbb4-e738a7c73430}, !- Layer 2
  {2521bf96-eeaa-4033-8fed-a77fd13a2fc4}; !- Layer 3

OS:StandardsInformation:Construction,
  {d7a876b4-409e-4eac-bd8d-9f5b94413e1b}, !- Handle
  {1083d2be-f9e4-4a6d-9197-2cf523adffbe}, !- Construction Name
  AtticFloor,                             !- Intended Surface Type
  WoodFramed;                             !- Standards Construction Type

OS:Material,
  {2521bf96-eeaa-4033-8fed-a77fd13a2fc4}, !- Handle
  1/2IN Gypsum,                           !- Name
  Smooth,                                 !- Roughness
  0.0127,                                 !- Thickness {m}
  0.16,                                   !- Conductivity {W/m-K}
  784.9,                                  !- Density {kg/m3}
  830.000000000001,                       !- Specific Heat {J/kg-K}
  0.9,                                    !- Thermal Absorptance
  0.4,                                    !- Solar Absorptance
  0.4;                                    !- Visible Absorptance

OS:Material,
  {757d9385-b048-44b8-bbb4-e738a7c73430}, !- Handle
  AtticFloor Insulation,                  !- Name
  MediumRough,                            !- Roughness
  0.2379,                                 !- Thickness {m}
  0.049,                                  !- Conductivity {W/m-K}
  265,                                    !- Density {kg/m3}
  836.800000000001,                       !- Specific Heat {J/kg-K}
  0.9,                                    !- Thermal Absorptance
  0.7,                                    !- Solar Absorptance
  0.7;                                    !- Visible Absorptance

OS:Construction,
  {60cfe3aa-1bdc-44be-a891-f0901e7fc3e2}, !- Handle
  ASHRAE 189.1-2009 ExtRoof IEAD ClimateZone 1, !- Name
  ,                                       !- Surface Rendering Name
  {b987e396-6f77-4a10-8366-f1e1bcb20029}, !- Layer 1
  {1d15177c-b786-4c4b-a313-1cf2be1f6c99}, !- Layer 2
  {d60042dc-78d7-4285-b4b7-d45cb899d23e}; !- Layer 3

OS:StandardsInformation:Construction,
  {8110bf3a-0c25-4ae2-bef8-dbdc61466e1b}, !- Handle
  {60cfe3aa-1bdc-44be-a891-f0901e7fc3e2}, !- Construction Name
  ExteriorRoof,                           !- Intended Surface Type
  IEAD;                                   !- Standards Construction Type

OS:Material,
  {b987e396-6f77-4a10-8366-f1e1bcb20029}, !- Handle
  Roof Membrane,                          !- Name
  VeryRough,                              !- Roughness
  0.0095,                                 !- Thickness {m}
  0.16,                                   !- Conductivity {W/m-K}
  1121.29,                                !- Density {kg/m3}
  1460,                                   !- Specific Heat {J/kg-K}
  0.9,                                    !- Thermal Absorptance
  0.7,                                    !- Solar Absorptance
  0.7;                                    !- Visible Absorptance

OS:Material,
  {1d15177c-b786-4c4b-a313-1cf2be1f6c99}, !- Handle
  Roof Insulation [18],                   !- Name
  MediumRough,                            !- Roughness
  0.1693,                                 !- Thickness {m}
  0.049,                                  !- Conductivity {W/m-K}
  265,                                    !- Density {kg/m3}
  836.800000000001,                       !- Specific Heat {J/kg-K}
  0.9,                                    !- Thermal Absorptance
  0.7,                                    !- Solar Absorptance
  0.7;                                    !- Visible Absorptance

OS:Material,
  {d60042dc-78d7-4285-b4b7-d45cb899d23e}, !- Handle
  Metal Decking,                          !- Name
  MediumSmooth,                           !- Roughness
  0.0015,                                 !- Thickness {m}
  45.006,                                 !- Conductivity {W/m-K}
  7680,                                   !- Density {kg/m3}
  418.4,                                  !- Specific Heat {J/kg-K}
  0.9,                                    !- Thermal Absorptance
  0.6,                                    !- Solar Absorptance
  0.6;                                    !- Visible Absorptance

OS:Construction,
  {dc0fd30f-7537-4a4e-836b-5f9e31f3a034}, !- Handle
  ASHRAE 189.1-2009 ExtRoof IEAD ClimateZone 2-5, !- Name
  ,                                       !- Surface Rendering Name
  {b987e396-6f77-4a10-8366-f1e1bcb20029}, !- Layer 1
  {c750e2a0-d157-4cb8-9580-af77eadb2da5}, !- Layer 2
  {d60042dc-78d7-4285-b4b7-d45cb899d23e}; !- Layer 3

OS:StandardsInformation:Construction,
  {da006aef-7dbf-40ef-9d65-10505a4f6bc1}, !- Handle
  {dc0fd30f-7537-4a4e-836b-5f9e31f3a034}, !- Construction Name
  ExteriorRoof,                           !- Intended Surface Type
  IEAD;                                   !- Standards Construction Type

OS:Material,
  {c750e2a0-d157-4cb8-9580-af77eadb2da5}, !- Handle
  Roof Insulation [21],                   !- Name
  MediumRough,                            !- Roughness
  0.2105,                                 !- Thickness {m}
  0.049,                                  !- Conductivity {W/m-K}
  265,                                    !- Density {kg/m3}
  836.800000000001,                       !- Specific Heat {J/kg-K}
  0.9,                                    !- Thermal Absorptance
  0.7,                                    !- Solar Absorptance
  0.7;                                    !- Visible Absorptance

OS:Construction,
  {121e25fc-3e5b-4a5b-bd56-84a2d36c6cb9}, !- Handle
  ASHRAE 189.1-2009 ExtRoof IEAD ClimateZone 6, !- Name
  ,                                       !- Surface Rendering Name
  {b987e396-6f77-4a10-8366-f1e1bcb20029}, !- Layer 1
  {e46f3225-84ea-415f-a859-c178f7ae1d90}, !- Layer 2
  {d60042dc-78d7-4285-b4b7-d45cb899d23e}; !- Layer 3

OS:StandardsInformation:Construction,
  {38364d1b-ef92-4709-a646-b40b1bc85d85}, !- Handle
  {121e25fc-3e5b-4a5b-bd56-84a2d36c6cb9}, !- Construction Name
  ExteriorRoof,                           !- Intended Surface Type
  IEAD;                                   !- Standards Construction Type

OS:Material,
  {e46f3225-84ea-415f-a859-c178f7ae1d90}, !- Handle
  Roof Insulation [24],                   !- Name
  MediumRough,                            !- Roughness
  0.260100000000001,                      !- Thickness {m}
  0.049,                                  !- Conductivity {W/m-K}
  265,                                    !- Density {kg/m3}
  836.800000000001,                       !- Specific Heat {J/kg-K}
  0.9,                                    !- Thermal Absorptance
  0.7,                                    !- Solar Absorptance
  0.7;                                    !- Visible Absorptance

OS:Construction,
  {d35965de-ef79-4c36-841e-7885f10941a4}, !- Handle
  ASHRAE 189.1-2009 ExtRoof IEAD ClimateZone 7-8, !- Name
  ,                                       !- Surface Rendering Name
  {b987e396-6f77-4a10-8366-f1e1bcb20029}, !- Layer 1
  {c236c665-9b28-4bb3-beac-7c13170d6eb7}, !- Layer 2
  {d60042dc-78d7-4285-b4b7-d45cb899d23e}; !- Layer 3

OS:StandardsInformation:Construction,
  {86003990-5852-4d84-b1a5-06da22e49999}, !- Handle
  {d35965de-ef79-4c36-841e-7885f10941a4}, !- Construction Name
  ExteriorRoof,                           !- Intended Surface Type
  IEAD;                                   !- Standards Construction Type

OS:Material,
  {c236c665-9b28-4bb3-beac-7c13170d6eb7}, !- Handle
  Roof Insulation [26],                   !- Name
  MediumRough,                            !- Roughness
  0.2941,                                 !- Thickness {m}
  0.049,                                  !- Conductivity {W/m-K}
  265,                                    !- Density {kg/m3}
  836.800000000001,                       !- Specific Heat {J/kg-K}
  0.9,                                    !- Thermal Absorptance
  0.7,                                    !- Solar Absorptance
  0.7;                                    !- Visible Absorptance

OS:Construction,
  {9be4379f-5e17-4684-a782-5c194f7c5b24}, !- Handle
  ASHRAE 189.1-2009 ExtRoof Metal ClimateZone 1, !- Name
  ,                                       !- Surface Rendering Name
  {e983c507-80b4-4a5e-9767-0db4cfa36423}, !- Layer 1
  {96657647-e0e5-4ff3-8903-4d867319edd3}, !- Layer 2
  {d60042dc-78d7-4285-b4b7-d45cb899d23e}; !- Layer 3

OS:StandardsInformation:Construction,
  {3928742e-1067-4994-9059-460e200cbfdf}, !- Handle
  {9be4379f-5e17-4684-a782-5c194f7c5b24}, !- Construction Name
  ExteriorRoof,                           !- Intended Surface Type
  Metal;                                  !- Standards Construction Type

OS:Material,
  {e983c507-80b4-4a5e-9767-0db4cfa36423}, !- Handle
  Metal Roofing,                          !- Name
  MediumSmooth,                           !- Roughness
  0.0015,                                 !- Thickness {m}
  45.006,                                 !- Conductivity {W/m-K}
  7680,                                   !- Density {kg/m3}
  418.4,                                  !- Specific Heat {J/kg-K}
  0.9,                                    !- Thermal Absorptance
  0.6,                                    !- Solar Absorptance
  0.6;                                    !- Visible Absorptance

OS:Material,
  {96657647-e0e5-4ff3-8903-4d867319edd3}, !- Handle
  Roof Insulation [19],                   !- Name
  MediumRough,                            !- Roughness
  0.1868,                                 !- Thickness {m}
  0.049,                                  !- Conductivity {W/m-K}
  265,                                    !- Density {kg/m3}
  836.800000000001,                       !- Specific Heat {J/kg-K}
  0.9,                                    !- Thermal Absorptance
  0.7,                                    !- Solar Absorptance
  0.7;                                    !- Visible Absorptance

OS:Construction,
  {ee3a30a6-2c63-4e62-a973-6c3e9e4b9da3}, !- Handle
  ASHRAE 189.1-2009 ExtRoof Metal ClimateZone 2-5, !- Name
  ,                                       !- Surface Rendering Name
  {e983c507-80b4-4a5e-9767-0db4cfa36423}, !- Layer 1
  {a0b977b2-5e95-4ac3-b870-2e5621583c51}, !- Layer 2
  {d60042dc-78d7-4285-b4b7-d45cb899d23e}; !- Layer 3

OS:StandardsInformation:Construction,
  {220625e0-c495-424b-b292-8fbe538bd807}, !- Handle
  {ee3a30a6-2c63-4e62-a973-6c3e9e4b9da3}, !- Construction Name
  ExteriorRoof,                           !- Intended Surface Type
  Metal;                                  !- Standards Construction Type

OS:Material,
  {a0b977b2-5e95-4ac3-b870-2e5621583c51}, !- Handle
  Roof Insulation [22],                   !- Name
  MediumRough,                            !- Roughness
  0.2358,                                 !- Thickness {m}
  0.049,                                  !- Conductivity {W/m-K}
  265,                                    !- Density {kg/m3}
  836.800000000001,                       !- Specific Heat {J/kg-K}
  0.9,                                    !- Thermal Absorptance
  0.7,                                    !- Solar Absorptance
  0.7;                                    !- Visible Absorptance

OS:Construction,
  {d8e9a292-cc79-4721-bad8-b0e2d17c25e5}, !- Handle
  ASHRAE 189.1-2009 ExtRoof Metal ClimateZone 6, !- Name
  ,                                       !- Surface Rendering Name
  {e983c507-80b4-4a5e-9767-0db4cfa36423}, !- Layer 1
  {9cc4b9bd-3d25-4e72-8841-42001d28ef7a}, !- Layer 2
  {d60042dc-78d7-4285-b4b7-d45cb899d23e}; !- Layer 3

OS:StandardsInformation:Construction,
  {84c2d89d-6b83-48bf-9c51-e8a9888a3304}, !- Handle
  {d8e9a292-cc79-4721-bad8-b0e2d17c25e5}, !- Construction Name
  ExteriorRoof,                           !- Intended Surface Type
  Metal;                                  !- Standards Construction Type

OS:Material,
  {9cc4b9bd-3d25-4e72-8841-42001d28ef7a}, !- Handle
  Roof Insulation [25],                   !- Name
  MediumRough,                            !- Roughness
  0.263,                                  !- Thickness {m}
  0.049,                                  !- Conductivity {W/m-K}
  265,                                    !- Density {kg/m3}
  836.800000000001,                       !- Specific Heat {J/kg-K}
  0.9,                                    !- Thermal Absorptance
  0.7,                                    !- Solar Absorptance
  0.7;                                    !- Visible Absorptance

OS:Construction,
  {fb5599ee-80cb-41e0-b106-b0dfeb5800ac}, !- Handle
  ASHRAE 189.1-2009 ExtRoof Metal ClimateZone 7-8, !- Name
  ,                                       !- Surface Rendering Name
  {e983c507-80b4-4a5e-9767-0db4cfa36423}, !- Layer 1
  {8bd612a0-9dd6-4530-ae66-da0d67638b97}, !- Layer 2
  {d60042dc-78d7-4285-b4b7-d45cb899d23e}; !- Layer 3

OS:StandardsInformation:Construction,
  {7dc79041-2418-4fab-9439-016ccae41868}, !- Handle
  {fb5599ee-80cb-41e0-b106-b0dfeb5800ac}, !- Construction Name
  ExteriorRoof,                           !- Intended Surface Type
  Metal;                                  !- Standards Construction Type

OS:Material,
  {8bd612a0-9dd6-4530-ae66-da0d67638b97}, !- Handle
  Roof Insulation [27],                   !- Name
  MediumRough,                            !- Roughness
  0.297000000000001,                      !- Thickness {m}
  0.049,                                  !- Conductivity {W/m-K}
  265,                                    !- Density {kg/m3}
  836.800000000001,                       !- Specific Heat {J/kg-K}
  0.9,                                    !- Thermal Absorptance
  0.7,                                    !- Solar Absorptance
  0.7;                                    !- Visible Absorptance

OS:Construction,
  {751da56b-9990-44d0-b4ce-45e5c8a8328b}, !- Handle
  ASHRAE 189.1-2009 ExtWall Mass ClimateZone 1, !- Name
  ,                                       !- Surface Rendering Name
  {bcf45adf-3aa0-436c-98b0-46612fdc5012}, !- Layer 1
  {74c1b250-c985-4f6d-a25e-d6124d665dc1}, !- Layer 2
  {74bc1e7f-674b-4829-8b54-01b262566142}, !- Layer 3
  {2521bf96-eeaa-4033-8fed-a77fd13a2fc4}; !- Layer 4

OS:StandardsInformation:Construction,
  {5ad6ad03-dfac-4daa-af1e-70bf9de72a75}, !- Handle
  {751da56b-9990-44d0-b4ce-45e5c8a8328b}, !- Construction Name
  ExteriorWall,                           !- Intended Surface Type
  Mass;                                   !- Standards Construction Type

OS:Material,
  {bcf45adf-3aa0-436c-98b0-46612fdc5012}, !- Handle
  1IN Stucco,                             !- Name
  Smooth,                                 !- Roughness
  0.0253,                                 !- Thickness {m}
  0.691799999999999,                      !- Conductivity {W/m-K}
  1858,                                   !- Density {kg/m3}
  836.999999999999,                       !- Specific Heat {J/kg-K}
  0.9,                                    !- Thermal Absorptance
  0.92,                                   !- Solar Absorptance
  0.92;                                   !- Visible Absorptance

OS:Material,
  {74c1b250-c985-4f6d-a25e-d6124d665dc1}, !- Handle
  8IN Concrete HW,                        !- Name
  MediumRough,                            !- Roughness
  0.2033,                                 !- Thickness {m}
  1.72959999999999,                       !- Conductivity {W/m-K}
  2242.99999999999,                       !- Density {kg/m3}
  836.999999999999,                       !- Specific Heat {J/kg-K}
  0.9,                                    !- Thermal Absorptance
  0.65,                                   !- Solar Absorptance
  0.65;                                   !- Visible Absorptance

OS:Material,
  {74bc1e7f-674b-4829-8b54-01b262566142}, !- Handle
  Wall Insulation [31],                   !- Name
  MediumRough,                            !- Roughness
  0.0337000000000001,                     !- Thickness {m}
  0.0432,                                 !- Conductivity {W/m-K}
  91,                                     !- Density {kg/m3}
  836.999999999999,                       !- Specific Heat {J/kg-K}
  0.9,                                    !- Thermal Absorptance
  0.5,                                    !- Solar Absorptance
  0.5;                                    !- Visible Absorptance

OS:Construction,
  {d0d35c80-110c-41d8-a3c5-9e105567b8bc}, !- Handle
  ASHRAE 189.1-2009 ExtWall Mass ClimateZone 2, !- Name
  ,                                       !- Surface Rendering Name
  {bcf45adf-3aa0-436c-98b0-46612fdc5012}, !- Layer 1
  {74c1b250-c985-4f6d-a25e-d6124d665dc1}, !- Layer 2
  {fc6d32e0-5115-48ee-a542-d2de111230dc}, !- Layer 3
  {2521bf96-eeaa-4033-8fed-a77fd13a2fc4}; !- Layer 4

OS:StandardsInformation:Construction,
  {63903c7e-36a4-43bf-8987-f80d34e4d2ac}, !- Handle
  {d0d35c80-110c-41d8-a3c5-9e105567b8bc}, !- Construction Name
  ExteriorWall,                           !- Intended Surface Type
  Mass;                                   !- Standards Construction Type

OS:Material,
  {fc6d32e0-5115-48ee-a542-d2de111230dc}, !- Handle
  Wall Insulation [35],                   !- Name
  MediumRough,                            !- Roughness
  0.0452,                                 !- Thickness {m}
  0.0432,                                 !- Conductivity {W/m-K}
  91,                                     !- Density {kg/m3}
  836.999999999999,                       !- Specific Heat {J/kg-K}
  0.9,                                    !- Thermal Absorptance
  0.5,                                    !- Solar Absorptance
  0.5;                                    !- Visible Absorptance

OS:Construction,
  {ab6c6173-969e-4485-a742-d984297de8dd}, !- Handle
  ASHRAE 189.1-2009 ExtWall Mass ClimateZone 3, !- Name
  ,                                       !- Surface Rendering Name
  {bcf45adf-3aa0-436c-98b0-46612fdc5012}, !- Layer 1
  {74c1b250-c985-4f6d-a25e-d6124d665dc1}, !- Layer 2
  {69633434-a9ea-4161-bd1a-00b697c3ea3f}, !- Layer 3
  {2521bf96-eeaa-4033-8fed-a77fd13a2fc4}; !- Layer 4

OS:StandardsInformation:Construction,
  {c75f016b-d686-419b-abfd-8743ef056f7e}, !- Handle
  {ab6c6173-969e-4485-a742-d984297de8dd}, !- Construction Name
  ExteriorWall,                           !- Intended Surface Type
  Mass;                                   !- Standards Construction Type

OS:Material,
  {69633434-a9ea-4161-bd1a-00b697c3ea3f}, !- Handle
  Wall Insulation [36],                   !- Name
  MediumRough,                            !- Roughness
  0.0565999999999999,                     !- Thickness {m}
  0.0432,                                 !- Conductivity {W/m-K}
  91,                                     !- Density {kg/m3}
  836.999999999999,                       !- Specific Heat {J/kg-K}
  0.9,                                    !- Thermal Absorptance
  0.5,                                    !- Solar Absorptance
  0.5;                                    !- Visible Absorptance

OS:Construction,
  {68d77634-a51b-4bd8-909c-4d2468613c53}, !- Handle
  ASHRAE 189.1-2009 ExtWall Mass ClimateZone 4, !- Name
  ,                                       !- Surface Rendering Name
  {bcf45adf-3aa0-436c-98b0-46612fdc5012}, !- Layer 1
  {74c1b250-c985-4f6d-a25e-d6124d665dc1}, !- Layer 2
  {8493249f-8c64-4ea5-b773-5e085ed05568}, !- Layer 3
  {2521bf96-eeaa-4033-8fed-a77fd13a2fc4}; !- Layer 4

OS:StandardsInformation:Construction,
  {bcd13c06-6b4c-4181-8400-4169fdbf1074}, !- Handle
  {68d77634-a51b-4bd8-909c-4d2468613c53}, !- Construction Name
  ExteriorWall,                           !- Intended Surface Type
  Mass;                                   !- Standards Construction Type

OS:Material,
  {8493249f-8c64-4ea5-b773-5e085ed05568}, !- Handle
  Wall Insulation [37],                   !- Name
  MediumRough,                            !- Roughness
  0.0680999999999999,                     !- Thickness {m}
  0.0432,                                 !- Conductivity {W/m-K}
  91,                                     !- Density {kg/m3}
  836.999999999999,                       !- Specific Heat {J/kg-K}
  0.9,                                    !- Thermal Absorptance
  0.5,                                    !- Solar Absorptance
  0.5;                                    !- Visible Absorptance

OS:Construction,
  {0ab41207-46d5-4bcf-b6d4-05487397b27b}, !- Handle
  ASHRAE 189.1-2009 ExtWall Mass ClimateZone 5, !- Name
  ,                                       !- Surface Rendering Name
  {bcf45adf-3aa0-436c-98b0-46612fdc5012}, !- Layer 1
  {74c1b250-c985-4f6d-a25e-d6124d665dc1}, !- Layer 2
  {9ab761fe-1afb-4788-b219-8936546bf19f}, !- Layer 3
  {2521bf96-eeaa-4033-8fed-a77fd13a2fc4}; !- Layer 4

OS:StandardsInformation:Construction,
  {4d9f554b-a832-42e2-8f5b-3505182445c6}, !- Handle
  {0ab41207-46d5-4bcf-b6d4-05487397b27b}, !- Construction Name
  ExteriorWall,                           !- Intended Surface Type
  Mass;                                   !- Standards Construction Type

OS:Material,
  {9ab761fe-1afb-4788-b219-8936546bf19f}, !- Handle
  Wall Insulation [40],                   !- Name
  MediumRough,                            !- Roughness
  0.0793999999999999,                     !- Thickness {m}
  0.0432,                                 !- Conductivity {W/m-K}
  91,                                     !- Density {kg/m3}
  836.999999999999,                       !- Specific Heat {J/kg-K}
  0.9,                                    !- Thermal Absorptance
  0.5,                                    !- Solar Absorptance
  0.5;                                    !- Visible Absorptance

OS:Construction,
  {f982497f-b214-47a1-97f6-59e8af3d104a}, !- Handle
  ASHRAE 189.1-2009 ExtWall Mass ClimateZone 6, !- Name
  ,                                       !- Surface Rendering Name
  {bcf45adf-3aa0-436c-98b0-46612fdc5012}, !- Layer 1
  {74c1b250-c985-4f6d-a25e-d6124d665dc1}, !- Layer 2
  {c371d6e6-6d99-4ee7-ad3d-ad641794dd5f}, !- Layer 3
  {2521bf96-eeaa-4033-8fed-a77fd13a2fc4}; !- Layer 4

OS:StandardsInformation:Construction,
  {ba5a45e0-49eb-4031-8832-fd01a60f149a}, !- Handle
  {f982497f-b214-47a1-97f6-59e8af3d104a}, !- Construction Name
  ExteriorWall,                           !- Intended Surface Type
  Mass;                                   !- Standards Construction Type

OS:Material,
  {c371d6e6-6d99-4ee7-ad3d-ad641794dd5f}, !- Handle
  Wall Insulation [42],                   !- Name
  MediumRough,                            !- Roughness
  0.0913999999999999,                     !- Thickness {m}
  0.0432,                                 !- Conductivity {W/m-K}
  91,                                     !- Density {kg/m3}
  836.999999999999,                       !- Specific Heat {J/kg-K}
  0.9,                                    !- Thermal Absorptance
  0.5,                                    !- Solar Absorptance
  0.5;                                    !- Visible Absorptance

OS:Construction,
  {2e952117-329c-4c3a-966c-9160206c28ff}, !- Handle
  ASHRAE 189.1-2009 ExtWall Mass ClimateZone 7-8, !- Name
  ,                                       !- Surface Rendering Name
  {bcf45adf-3aa0-436c-98b0-46612fdc5012}, !- Layer 1
  {74c1b250-c985-4f6d-a25e-d6124d665dc1}, !- Layer 2
  {b70e7e9d-737c-4eca-ac02-6387fd9abf89}, !- Layer 3
  {2521bf96-eeaa-4033-8fed-a77fd13a2fc4}; !- Layer 4

OS:StandardsInformation:Construction,
  {a2e23566-8110-4639-a987-b486fbd0d8c4}, !- Handle
  {2e952117-329c-4c3a-966c-9160206c28ff}, !- Construction Name
  ExteriorWall,                           !- Intended Surface Type
  Mass;                                   !- Standards Construction Type

OS:Material,
  {b70e7e9d-737c-4eca-ac02-6387fd9abf89}, !- Handle
  Wall Insulation [44],                   !- Name
  MediumRough,                            !- Roughness
  0.1104,                                 !- Thickness {m}
  0.0432,                                 !- Conductivity {W/m-K}
  91,                                     !- Density {kg/m3}
  836.999999999999,                       !- Specific Heat {J/kg-K}
  0.9,                                    !- Thermal Absorptance
  0.5,                                    !- Solar Absorptance
  0.5;                                    !- Visible Absorptance

OS:Construction,
  {3c70c516-35c9-4c7d-9250-e9ef439c09ba}, !- Handle
  ASHRAE 189.1-2009 ExtWall Mass ClimateZone alt-res 1, !- Name
  ,                                       !- Surface Rendering Name
  {bcf45adf-3aa0-436c-98b0-46612fdc5012}, !- Layer 1
  {74c1b250-c985-4f6d-a25e-d6124d665dc1}, !- Layer 2
  {fc6d32e0-5115-48ee-a542-d2de111230dc}, !- Layer 3
  {2521bf96-eeaa-4033-8fed-a77fd13a2fc4}; !- Layer 4

OS:StandardsInformation:Construction,
  {c1c504e6-26ce-4c2f-96f2-dc597851c058}, !- Handle
  {3c70c516-35c9-4c7d-9250-e9ef439c09ba}, !- Construction Name
  ExteriorWall,                           !- Intended Surface Type
  Mass;                                   !- Standards Construction Type

OS:Construction,
  {da3e34ee-dacc-47d1-9156-f765fbc83174}, !- Handle
  ASHRAE 189.1-2009 ExtWall Mass ClimateZone alt-res 2, !- Name
  ,                                       !- Surface Rendering Name
  {bcf45adf-3aa0-436c-98b0-46612fdc5012}, !- Layer 1
  {74c1b250-c985-4f6d-a25e-d6124d665dc1}, !- Layer 2
  {69633434-a9ea-4161-bd1a-00b697c3ea3f}, !- Layer 3
  {2521bf96-eeaa-4033-8fed-a77fd13a2fc4}; !- Layer 4

OS:StandardsInformation:Construction,
  {098a9469-ee9c-485a-aad7-8cdb138eba88}, !- Handle
  {da3e34ee-dacc-47d1-9156-f765fbc83174}, !- Construction Name
  ExteriorWall,                           !- Intended Surface Type
  Mass;                                   !- Standards Construction Type

OS:Construction,
  {82c18ae3-82d2-49d2-a425-53bd1c3c8f99}, !- Handle
  ASHRAE 189.1-2009 ExtWall Mass ClimateZone alt-res 3, !- Name
  ,                                       !- Surface Rendering Name
  {bcf45adf-3aa0-436c-98b0-46612fdc5012}, !- Layer 1
  {74c1b250-c985-4f6d-a25e-d6124d665dc1}, !- Layer 2
  {8493249f-8c64-4ea5-b773-5e085ed05568}, !- Layer 3
  {2521bf96-eeaa-4033-8fed-a77fd13a2fc4}; !- Layer 4

OS:StandardsInformation:Construction,
  {1a7a376c-383a-424d-9bf6-a55ecf705658}, !- Handle
  {82c18ae3-82d2-49d2-a425-53bd1c3c8f99}, !- Construction Name
  ExteriorWall,                           !- Intended Surface Type
  Mass;                                   !- Standards Construction Type

OS:Construction,
  {54988655-fb8d-4ae6-a595-acfda6c46c04}, !- Handle
  ASHRAE 189.1-2009 ExtWall Mass ClimateZone alt-res 4, !- Name
  ,                                       !- Surface Rendering Name
  {bcf45adf-3aa0-436c-98b0-46612fdc5012}, !- Layer 1
  {74c1b250-c985-4f6d-a25e-d6124d665dc1}, !- Layer 2
  {9ab761fe-1afb-4788-b219-8936546bf19f}, !- Layer 3
  {2521bf96-eeaa-4033-8fed-a77fd13a2fc4}; !- Layer 4

OS:StandardsInformation:Construction,
  {3ee2ab7a-5211-4893-9786-cd67fb1b588d}, !- Handle
  {54988655-fb8d-4ae6-a595-acfda6c46c04}, !- Construction Name
  ExteriorWall,                           !- Intended Surface Type
  Mass;                                   !- Standards Construction Type

OS:Construction,
  {5e6a9724-a787-491b-8e5e-1aabb6309c36}, !- Handle
  ASHRAE 189.1-2009 ExtWall Mass ClimateZone alt-res 5, !- Name
  ,                                       !- Surface Rendering Name
  {bcf45adf-3aa0-436c-98b0-46612fdc5012}, !- Layer 1
  {74c1b250-c985-4f6d-a25e-d6124d665dc1}, !- Layer 2
  {c371d6e6-6d99-4ee7-ad3d-ad641794dd5f}, !- Layer 3
  {2521bf96-eeaa-4033-8fed-a77fd13a2fc4}; !- Layer 4

OS:StandardsInformation:Construction,
  {d525ceb1-66c9-4202-8199-018cc2d64e4f}, !- Handle
  {5e6a9724-a787-491b-8e5e-1aabb6309c36}, !- Construction Name
  ExteriorWall,                           !- Intended Surface Type
  Mass;                                   !- Standards Construction Type

OS:Construction,
  {cd23cfaa-5b26-4c38-89a9-4ae76d3a5d80}, !- Handle
  ASHRAE 189.1-2009 ExtWall Mass ClimateZone alt-res 6, !- Name
  ,                                       !- Surface Rendering Name
  {bcf45adf-3aa0-436c-98b0-46612fdc5012}, !- Layer 1
  {74c1b250-c985-4f6d-a25e-d6124d665dc1}, !- Layer 2
  {b70e7e9d-737c-4eca-ac02-6387fd9abf89}, !- Layer 3
  {2521bf96-eeaa-4033-8fed-a77fd13a2fc4}; !- Layer 4

OS:StandardsInformation:Construction,
  {27dd9427-5c85-4aa8-ba9d-161622bff20e}, !- Handle
  {cd23cfaa-5b26-4c38-89a9-4ae76d3a5d80}, !- Construction Name
  ExteriorWall,                           !- Intended Surface Type
  Mass;                                   !- Standards Construction Type

OS:Construction,
  {cd21edf4-3ba5-4ce3-a732-c3a8e164c4be}, !- Handle
  ASHRAE 189.1-2009 ExtWall Mass ClimateZone alt-res 7, !- Name
  ,                                       !- Surface Rendering Name
  {bcf45adf-3aa0-436c-98b0-46612fdc5012}, !- Layer 1
  {74c1b250-c985-4f6d-a25e-d6124d665dc1}, !- Layer 2
  {b70e7e9d-737c-4eca-ac02-6387fd9abf89}, !- Layer 3
  {2521bf96-eeaa-4033-8fed-a77fd13a2fc4}; !- Layer 4

OS:StandardsInformation:Construction,
  {1cb375f0-ac77-4d75-bb84-c2337a72dd3c}, !- Handle
  {cd21edf4-3ba5-4ce3-a732-c3a8e164c4be}, !- Construction Name
  ExteriorWall,                           !- Intended Surface Type