
OS:Version,
  {d99202ab-55cf-4e77-bcaf-c8b410da9bfc}, !- Handle
  1.3.3;                                  !- Version Identifier

OS:Construction,
  {302fc837-0bda-4fc0-a3c6-34ece747db55}, !- Handle
  ASHRAE 189.1-2009 AtticFloor ClimateZone 1-8, !- Name
  ,                                       !- Surface Rendering Name
  {10f37f1e-8a69-405f-a63c-8869b3aa4cd7}, !- Layer 1
  {92079605-862a-4b38-af24-cc45e1a1bc10}, !- Layer 2
  {10f37f1e-8a69-405f-a63c-8869b3aa4cd7}; !- Layer 3

OS:StandardsInformation:Construction,
  {e0696d08-1249-44e2-b01b-237be2ff52d1}, !- Handle
  {302fc837-0bda-4fc0-a3c6-34ece747db55}, !- Construction Name
  AtticFloor,                             !- Intended Surface Type
  WoodFramed;                             !- Standards Construction Type

OS:Material,
  {10f37f1e-8a69-405f-a63c-8869b3aa4cd7}, !- Handle
  1/2IN Gypsum,                           !- Name
  Smooth,                                 !- Roughness
  0.0127,                                 !- Thickness {m}
  0.16,                                   !- Conductivity {W/m-K}
  784.9,                                  !- Density {kg/m3}
  830.000000000001,                       !- Specific Heat {J/kg-K}
  0.9,                                    !- Thermal Absorptance
  0.92,                                   !- Solar Absorptance
  0.92;                                   !- Visible Absorptance

OS:Material,
  {92079605-862a-4b38-af24-cc45e1a1bc10}, !- Handle
  AtticFloor Insulation,                  !- Name
  MediumRough,                            !- Roughness
  0.2379,                                 !- Thickness {m}
  0.049,                                  !- Conductivity {W/m-K}
  265,                                    !- Density {kg/m3}
  836.800000000001,                       !- Specific Heat {J/kg-K}
  0.9,                                    !- Thermal Absorptance
  0.7,                                    !- Solar Absorptance
  0.7;                                    !- Visible Absorptance

OS:Construction,
  {58b3765d-68a1-4c7f-a3a0-a04b17c4e580}, !- Handle
  ASHRAE 189.1-2009 ExtRoof IEAD ClimateZone 1, !- Name
  ,                                       !- Surface Rendering Name
  {1ac7addd-5d80-4348-99c2-e2590a1a7fa5}, !- Layer 1
  {e2ed3e73-2a5a-4eb9-8e4c-04032c034e0e}, !- Layer 2
  {4a36b6b6-10e5-4eda-bc01-e6814c65dde6}; !- Layer 3

OS:StandardsInformation:Construction,
  {a710ed21-fc91-4f3d-9838-e13be0b026f2}, !- Handle
  {58b3765d-68a1-4c7f-a3a0-a04b17c4e580}, !- Construction Name
  ExteriorRoof,                           !- Intended Surface Type
  IEAD;                                   !- Standards Construction Type

OS:Material,
  {1ac7addd-5d80-4348-99c2-e2590a1a7fa5}, !- Handle
  Roof Membrane,                          !- Name
  VeryRough,                              !- Roughness
  0.0095,                                 !- Thickness {m}
  0.16,                                   !- Conductivity {W/m-K}
  1121.29,                                !- Density {kg/m3}
  1460,                                   !- Specific Heat {J/kg-K}
  0.9,                                    !- Thermal Absorptance
  0.7,                                    !- Solar Absorptance
  0.7;                                    !- Visible Absorptance

OS:Material,
  {e2ed3e73-2a5a-4eb9-8e4c-04032c034e0e}, !- Handle
  Roof Insulation [18],                   !- Name
  MediumRough,                            !- Roughness
  0.1693,                                 !- Thickness {m}
  0.049,                                  !- Conductivity {W/m-K}
  265,                                    !- Density {kg/m3}
  836.800000000001,                       !- Specific Heat {J/kg-K}
  0.9,                                    !- Thermal Absorptance
  0.7,                                    !- Solar Absorptance
  0.7;                                    !- Visible Absorptance

OS:Material,
  {4a36b6b6-10e5-4eda-bc01-e6814c65dde6}, !- Handle
  Metal Decking,                          !- Name
  MediumSmooth,                           !- Roughness
  0.0015,                                 !- Thickness {m}
  45.006,                                 !- Conductivity {W/m-K}
  7680,                                   !- Density {kg/m3}
  418.4,                                  !- Specific Heat {J/kg-K}
  0.9,                                    !- Thermal Absorptance
  0.7,                                    !- Solar Absorptance
  0.3;                                    !- Visible Absorptance

OS:Construction,
  {29c93c6e-6ed9-4995-b75c-2a8c17f9257f}, !- Handle
  ASHRAE 189.1-2009 ExtRoof IEAD ClimateZone 2-5, !- Name
  ,                                       !- Surface Rendering Name
  {1ac7addd-5d80-4348-99c2-e2590a1a7fa5}, !- Layer 1
  {0e3c173d-0f6b-4e94-94cc-266372e297a7}, !- Layer 2
  {4a36b6b6-10e5-4eda-bc01-e6814c65dde6}; !- Layer 3

OS:StandardsInformation:Construction,
  {d82015d1-b7f8-4d52-bcaa-b305b9bb44af}, !- Handle
  {29c93c6e-6ed9-4995-b75c-2a8c17f9257f}, !- Construction Name
  ExteriorRoof,                           !- Intended Surface Type
  IEAD;                                   !- Standards Construction Type

OS:Material,
  {0e3c173d-0f6b-4e94-94cc-266372e297a7}, !- Handle
  Roof Insulation [21],                   !- Name
  MediumRough,                            !- Roughness
  0.2105,                                 !- Thickness {m}
  0.049,                                  !- Conductivity {W/m-K}
  265,                                    !- Density {kg/m3}
  836.800000000001,                       !- Specific Heat {J/kg-K}
  0.9,                                    !- Thermal Absorptance
  0.7,                                    !- Solar Absorptance
  0.7;                                    !- Visible Absorptance

OS:Construction,
  {9b2fed8c-1fdc-4ff5-bb23-51f6586b8151}, !- Handle
  ASHRAE 189.1-2009 ExtRoof IEAD ClimateZone 6, !- Name
  ,                                       !- Surface Rendering Name
  {1ac7addd-5d80-4348-99c2-e2590a1a7fa5}, !- Layer 1
  {f38b7b21-02a6-466e-b1ec-f9388bed0ae7}, !- Layer 2
  {4a36b6b6-10e5-4eda-bc01-e6814c65dde6}; !- Layer 3

OS:StandardsInformation:Construction,
  {ccad8b06-a7bc-4efe-8e43-1d772702ba69}, !- Handle
  {9b2fed8c-1fdc-4ff5-bb23-51f6586b8151}, !- Construction Name
  ExteriorRoof,                           !- Intended Surface Type
  IEAD;                                   !- Standards Construction Type

OS:Material,
  {f38b7b21-02a6-466e-b1ec-f9388bed0ae7}, !- Handle
  Roof Insulation [24],                   !- Name
  MediumRough,                            !- Roughness
  0.260100000000001,                      !- Thickness {m}
  0.049,                                  !- Conductivity {W/m-K}
  265,                                    !- Density {kg/m3}
  836.800000000001,                       !- Specific Heat {J/kg-K}
  0.9,                                    !- Thermal Absorptance
  0.7,                                    !- Solar Absorptance
  0.7;                                    !- Visible Absorptance

OS:Construction,
  {b5b39568-b78d-4f01-a824-15fd4f2b005e}, !- Handle
  ASHRAE 189.1-2009 ExtRoof IEAD ClimateZone 7-8, !- Name
  ,                                       !- Surface Rendering Name
  {1ac7addd-5d80-4348-99c2-e2590a1a7fa5}, !- Layer 1
  {67bf77cd-33ee-4e21-8070-2251a785f949}, !- Layer 2
  {4a36b6b6-10e5-4eda-bc01-e6814c65dde6}; !- Layer 3

OS:StandardsInformation:Construction,
  {0778b401-6081-482b-ae44-3775510ab257}, !- Handle
  {b5b39568-b78d-4f01-a824-15fd4f2b005e}, !- Construction Name
  ExteriorRoof,                           !- Intended Surface Type
  IEAD;                                   !- Standards Construction Type

OS:Material,
  {67bf77cd-33ee-4e21-8070-2251a785f949}, !- Handle
  Roof Insulation [26],                   !- Name
  MediumRough,                            !- Roughness
  0.2941,                                 !- Thickness {m}
  0.049,                                  !- Conductivity {W/m-K}
  265,                                    !- Density {kg/m3}
  836.800000000001,                       !- Specific Heat {J/kg-K}
  0.9,                                    !- Thermal Absorptance
  0.7,                                    !- Solar Absorptance
  0.7;                                    !- Visible Absorptance

OS:Construction,
  {e8364794-0437-4c1a-a57d-02017863c148}, !- Handle
  ASHRAE 189.1-2009 ExtRoof Metal ClimateZone 1, !- Name
  ,                                       !- Surface Rendering Name
  {35bb7986-8d67-4e28-87db-731d8fdc2003}, !- Layer 1
  {13010664-275e-4eac-ac10-b83bd0f7cf48}; !- Layer 2

OS:StandardsInformation:Construction,
  {3d9e2654-987b-42f4-8633-eea2c6974f92}, !- Handle
  {e8364794-0437-4c1a-a57d-02017863c148}, !- Construction Name
  ExteriorRoof,                           !- Intended Surface Type
  Metal;                                  !- Standards Construction Type

OS:Material,
  {35bb7986-8d67-4e28-87db-731d8fdc2003}, !- Handle
  Metal Roofing,                          !- Name
  MediumSmooth,                           !- Roughness
  0.0015,                                 !- Thickness {m}
  45.006,                                 !- Conductivity {W/m-K}
  7680,                                   !- Density {kg/m3}
  418.4,                                  !- Specific Heat {J/kg-K}
  0.9,                                    !- Thermal Absorptance
  0.3,                                    !- Solar Absorptance
  0.3;                                    !- Visible Absorptance

OS:Material,
  {13010664-275e-4eac-ac10-b83bd0f7cf48}, !- Handle
  Roof Insulation [19],                   !- Name
  MediumRough,                            !- Roughness
  0.1868,                                 !- Thickness {m}
  0.049,                                  !- Conductivity {W/m-K}
  265,                                    !- Density {kg/m3}
  836.800000000001,                       !- Specific Heat {J/kg-K}
  0.9,                                    !- Thermal Absorptance
  0.7,                                    !- Solar Absorptance
  0.7;                                    !- Visible Absorptance

OS:Construction,
  {2292c603-d4fd-487b-a691-84ce66a3e43a}, !- Handle
  ASHRAE 189.1-2009 ExtRoof Metal ClimateZone 2-5, !- Name
  ,                                       !- Surface Rendering Name
  {35bb7986-8d67-4e28-87db-731d8fdc2003}, !- Layer 1
  {429e9642-556d-40e0-b253-d95dc04a013e}; !- Layer 2

OS:StandardsInformation:Construction,
  {5e5c32c6-011c-4844-af8b-36aa764fc098}, !- Handle
  {2292c603-d4fd-487b-a691-84ce66a3e43a}, !- Construction Name
  ExteriorRoof,                           !- Intended Surface Type
  Metal;                                  !- Standards Construction Type

OS:Material,
  {429e9642-556d-40e0-b253-d95dc04a013e}, !- Handle
  Roof Insulation [22],                   !- Name
  MediumRough,                            !- Roughness
  0.2358,                                 !- Thickness {m}
  0.049,                                  !- Conductivity {W/m-K}
  265,                                    !- Density {kg/m3}
  836.800000000001,                       !- Specific Heat {J/kg-K}
  0.9,                                    !- Thermal Absorptance
  0.7,                                    !- Solar Absorptance
  0.7;                                    !- Visible Absorptance

OS:Construction,
  {9f434e3f-f8cb-4300-818d-d6c07558aa14}, !- Handle
  ASHRAE 189.1-2009 ExtRoof Metal ClimateZone 6, !- Name
  ,                                       !- Surface Rendering Name
  {35bb7986-8d67-4e28-87db-731d8fdc2003}, !- Layer 1
  {56df15eb-75b8-4572-bb68-69528d41631a}; !- Layer 2

OS:StandardsInformation:Construction,
  {bbf3b6f8-2cf5-4d95-957c-a55671204cd4}, !- Handle
  {9f434e3f-f8cb-4300-818d-d6c07558aa14}, !- Construction Name
  ExteriorRoof,                           !- Intended Surface Type
  Metal;                                  !- Standards Construction Type

OS:Material,
  {56df15eb-75b8-4572-bb68-69528d41631a}, !- Handle
  Roof Insulation [25],                   !- Name
  MediumRough,                            !- Roughness
  0.263,                                  !- Thickness {m}
  0.049,                                  !- Conductivity {W/m-K}
  265,                                    !- Density {kg/m3}
  836.800000000001,                       !- Specific Heat {J/kg-K}
  0.9,                                    !- Thermal Absorptance
  0.7,                                    !- Solar Absorptance
  0.7;                                    !- Visible Absorptance

OS:Construction,
  {4006954f-3dfa-4776-af11-9aaa9f622d34}, !- Handle
  ASHRAE 189.1-2009 ExtRoof Metal ClimateZone 7-8, !- Name
  ,                                       !- Surface Rendering Name
  {35bb7986-8d67-4e28-87db-731d8fdc2003}, !- Layer 1
  {7df665d9-e830-4792-b44a-94ee4df04a10}; !- Layer 2

OS:StandardsInformation:Construction,
  {2f4a978f-702a-4c77-8fe0-02f0390c64e6}, !- Handle
  {4006954f-3dfa-4776-af11-9aaa9f622d34}, !- Construction Name
  ExteriorRoof,                           !- Intended Surface Type
  Metal;                                  !- Standards Construction Type

OS:Material,
  {7df665d9-e830-4792-b44a-94ee4df04a10}, !- Handle
  Roof Insulation [27],                   !- Name
  MediumRough,                            !- Roughness
  0.297000000000001,                      !- Thickness {m}
  0.049,                                  !- Conductivity {W/m-K}
  265,                                    !- Density {kg/m3}
  836.800000000001,                       !- Specific Heat {J/kg-K}
  0.9,                                    !- Thermal Absorptance
  0.7,                                    !- Solar Absorptance
  0.7;                                    !- Visible Absorptance

OS:Construction,
  {5de4629f-ed13-4191-8a11-71ba9ad18320}, !- Handle
  ASHRAE 189.1-2009 ExtWall Mass ClimateZone 1, !- Name
  ,                                       !- Surface Rendering Name
  {5b16f6aa-1578-4325-a9d1-4ca34762d850}, !- Layer 1
  {0f2da712-3db4-4c95-b773-cef659bd9a7a}, !- Layer 2
  {7bb0c2d7-8e01-4289-8700-2439350b12a3}, !- Layer 3
  {10f37f1e-8a69-405f-a63c-8869b3aa4cd7}; !- Layer 4

OS:StandardsInformation:Construction,
  {25c87c13-313d-46ea-9ea5-4ead9e228b25}, !- Handle
  {5de4629f-ed13-4191-8a11-71ba9ad18320}, !- Construction Name
  ExteriorWall,                           !- Intended Surface Type
  Mass;                                   !- Standards Construction Type

OS:Material,
  {5b16f6aa-1578-4325-a9d1-4ca34762d850}, !- Handle
  1IN Stucco,                             !- Name
  Smooth,                                 !- Roughness
  0.0253,                                 !- Thickness {m}
  0.691799999999999,                      !- Conductivity {W/m-K}
  1858,                                   !- Density {kg/m3}
  836.999999999999,                       !- Specific Heat {J/kg-K}
  0.9,                                    !- Thermal Absorptance
  0.92,                                   !- Solar Absorptance
  0.92;                                   !- Visible Absorptance

OS:Material,
  {0f2da712-3db4-4c95-b773-cef659bd9a7a}, !- Handle
  8IN Concrete HW,                        !- Name
  MediumRough,                            !- Roughness
  0.2033,                                 !- Thickness {m}
  1.72959999999999,                       !- Conductivity {W/m-K}
  2242.99999999999,                       !- Density {kg/m3}
  836.999999999999,                       !- Specific Heat {J/kg-K}
  0.9,                                    !- Thermal Absorptance
  0.65,                                   !- Solar Absorptance
  0.65;                                   !- Visible Absorptance

OS:Material,
  {7bb0c2d7-8e01-4289-8700-2439350b12a3}, !- Handle
  Wall Insulation [31],                   !- Name
  MediumRough,                            !- Roughness
  0.0337000000000001,                     !- Thickness {m}
  0.0432,                                 !- Conductivity {W/m-K}
  91,                                     !- Density {kg/m3}
  836.999999999999,                       !- Specific Heat {J/kg-K}
  0.9,                                    !- Thermal Absorptance
  0.5,                                    !- Solar Absorptance
  0.5;                                    !- Visible Absorptance

OS:Construction,
  {36e81222-90aa-47ba-a7ec-7dbdbd8ffa0a}, !- Handle
  ASHRAE 189.1-2009 ExtWall Mass ClimateZone 2, !- Name
  ,                                       !- Surface Rendering Name
  {5b16f6aa-1578-4325-a9d1-4ca34762d850}, !- Layer 1
  {0f2da712-3db4-4c95-b773-cef659bd9a7a}, !- Layer 2
  {9ebce2d7-f76d-4f49-ad10-658070a08516}, !- Layer 3
  {10f37f1e-8a69-405f-a63c-8869b3aa4cd7}; !- Layer 4

OS:StandardsInformation:Construction,
  {d67eb43b-20f7-49d3-92f0-2ab48575dfb3}, !- Handle
  {36e81222-90aa-47ba-a7ec-7dbdbd8ffa0a}, !- Construction Name
  ExteriorWall,                           !- Intended Surface Type
  Mass;                                   !- Standards Construction Type

OS:Material,
  {9ebce2d7-f76d-4f49-ad10-658070a08516}, !- Handle
  Wall Insulation [35],                   !- Name
  MediumRough,                            !- Roughness
  0.0452,                                 !- Thickness {m}
  0.0432,                                 !- Conductivity {W/m-K}
  91,                                     !- Density {kg/m3}
  836.999999999999,                       !- Specific Heat {J/kg-K}
  0.9,                                    !- Thermal Absorptance
  0.5,                                    !- Solar Absorptance
  0.5;                                    !- Visible Absorptance

OS:Construction,
  {979e8755-0059-46e6-9306-3148d35c6572}, !- Handle
  ASHRAE 189.1-2009 ExtWall Mass ClimateZone 3, !- Name
  ,                                       !- Surface Rendering Name
  {5b16f6aa-1578-4325-a9d1-4ca34762d850}, !- Layer 1
  {0f2da712-3db4-4c95-b773-cef659bd9a7a}, !- Layer 2
  {fd3cc286-35f5-4001-acfc-1f138a068d56}, !- Layer 3
  {10f37f1e-8a69-405f-a63c-8869b3aa4cd7}; !- Layer 4

OS:StandardsInformation:Construction,
  {f2268274-3743-42f9-b584-56692a7a904b}, !- Handle
  {979e8755-0059-46e6-9306-3148d35c6572}, !- Construction Name
  ExteriorWall,                           !- Intended Surface Type
  Mass;                                   !- Standards Construction Type

OS:Material,
  {fd3cc286-35f5-4001-acfc-1f138a068d56}, !- Handle
  Wall Insulation [36],                   !- Name
  MediumRough,                            !- Roughness
  0.0565999999999999,                     !- Thickness {m}
  0.0432,                                 !- Conductivity {W/m-K}
  91,                                     !- Density {kg/m3}
  836.999999999999,                       !- Specific Heat {J/kg-K}
  0.9,                                    !- Thermal Absorptance
  0.5,                                    !- Solar Absorptance
  0.5;                                    !- Visible Absorptance

OS:Construction,
  {32f8171c-9165-42e5-b8f4-07e09db0569e}, !- Handle
  ASHRAE 189.1-2009 ExtWall Mass ClimateZone 4, !- Name
  ,                                       !- Surface Rendering Name
  {5b16f6aa-1578-4325-a9d1-4ca34762d850}, !- Layer 1
  {0f2da712-3db4-4c95-b773-cef659bd9a7a}, !- Layer 2
  {ea8bf933-4751-4999-aa34-a015bc1bef3d}, !- Layer 3
  {10f37f1e-8a69-405f-a63c-8869b3aa4cd7}; !- Layer 4

OS:StandardsInformation:Construction,
  {39dde362-e36f-4e4c-a09e-3a2c1cab9aa7}, !- Handle
  {32f8171c-9165-42e5-b8f4-07e09db0569e}, !- Construction Name
  ExteriorWall,                           !- Intended Surface Type
  Mass;                                   !- Standards Construction Type

OS:Material,
  {ea8bf933-4751-4999-aa34-a015bc1bef3d}, !- Handle
  Wall Insulation [37],                   !- Name
  MediumRough,                            !- Roughness
  0.0680999999999999,                     !- Thickness {m}
  0.0432,                                 !- Conductivity {W/m-K}
  91,                                     !- Density {kg/m3}
  836.999999999999,                       !- Specific Heat {J/kg-K}
  0.9,                                    !- Thermal Absorptance
  0.5,                                    !- Solar Absorptance
  0.5;                                    !- Visible Absorptance

OS:Construction,
  {b0f7b33e-88b5-4b6a-ae3b-c1bd0721c285}, !- Handle
  ASHRAE 189.1-2009 ExtWall Mass ClimateZone 5, !- Name
  ,                                       !- Surface Rendering Name
  {5b16f6aa-1578-4325-a9d1-4ca34762d850}, !- Layer 1
  {0f2da712-3db4-4c95-b773-cef659bd9a7a}, !- Layer 2
  {983a1913-7e78-43b6-b8b7-cfb2da01a71c}, !- Layer 3
  {10f37f1e-8a69-405f-a63c-8869b3aa4cd7}; !- Layer 4

OS:StandardsInformation:Construction,
  {db835a27-07cc-4414-9281-a4a44416dd59}, !- Handle
  {b0f7b33e-88b5-4b6a-ae3b-c1bd0721c285}, !- Construction Name
  ExteriorWall,                           !- Intended Surface Type
  Mass;                                   !- Standards Construction Type

OS:Material,
  {983a1913-7e78-43b6-b8b7-cfb2da01a71c}, !- Handle
  Wall Insulation [40],                   !- Name
  MediumRough,                            !- Roughness
  0.0793999999999999,                     !- Thickness {m}
  0.0432,                                 !- Conductivity {W/m-K}
  91,                                     !- Density {kg/m3}
  836.999999999999,                       !- Specific Heat {J/kg-K}
  0.9,                                    !- Thermal Absorptance
  0.5,                                    !- Solar Absorptance
  0.5;                                    !- Visible Absorptance

OS:Construction,
  {37f0705d-e03c-451b-aeef-bd87b2d1ac34}, !- Handle
  ASHRAE 189.1-2009 ExtWall Mass ClimateZone 6, !- Name
  ,                                       !- Surface Rendering Name
  {5b16f6aa-1578-4325-a9d1-4ca34762d850}, !- Layer 1
  {0f2da712-3db4-4c95-b773-cef659bd9a7a}, !- Layer 2
  {a629884c-8c2a-4f13-8a89-94c802d530b7}, !- Layer 3
  {10f37f1e-8a69-405f-a63c-8869b3aa4cd7}; !- Layer 4

OS:StandardsInformation:Construction,
  {b81f5dbb-5496-4ed5-83a4-6425b4d90a58}, !- Handle
  {37f0705d-e03c-451b-aeef-bd87b2d1ac34}, !- Construction Name
  ExteriorWall,                           !- Intended Surface Type
  Mass;                                   !- Standards Construction Type

OS:Material,
  {a629884c-8c2a-4f13-8a89-94c802d530b7}, !- Handle
  Wall Insulation [42],                   !- Name
  MediumRough,                            !- Roughness
  0.0913999999999999,                     !- Thickness {m}
  0.0432,                                 !- Conductivity {W/m-K}
  91,                                     !- Density {kg/m3}
  836.999999999999,                       !- Specific Heat {J/kg-K}
  0.9,                                    !- Thermal Absorptance
  0.5,                                    !- Solar Absorptance
  0.5;                                    !- Visible Absorptance

OS:Construction,
  {1622780b-aada-41b3-8ac4-c68d71cea390}, !- Handle
  ASHRAE 189.1-2009 ExtWall Mass ClimateZone 7-8, !- Name
  ,                                       !- Surface Rendering Name
  {5b16f6aa-1578-4325-a9d1-4ca34762d850}, !- Layer 1
  {0f2da712-3db4-4c95-b773-cef659bd9a7a}, !- Layer 2
  {dafa9f00-e8cf-4a60-80be-96122d094519}, !- Layer 3
  {10f37f1e-8a69-405f-a63c-8869b3aa4cd7}; !- Layer 4

OS:StandardsInformation:Construction,
  {4aabbbcd-5da4-4278-bc44-abd22608e03a}, !- Handle
  {1622780b-aada-41b3-8ac4-c68d71cea390}, !- Construction Name
  ExteriorWall,                           !- Intended Surface Type
  Mass;                                   !- Standards Construction Type

OS:Material,
  {dafa9f00-e8cf-4a60-80be-96122d094519}, !- Handle
  Wall Insulation [44],                   !- Name
  MediumRough,                            !- Roughness
  0.1104,                                 !- Thickness {m}
  0.0432,                                 !- Conductivity {W/m-K}
  91,                                     !- Density {kg/m3}
  836.999999999999,                       !- Specific Heat {J/kg-K}
  0.9,                                    !- Thermal Absorptance
  0.5,                                    !- Solar Absorptance
  0.5;                                    !- Visible Absorptance

OS:Construction,
  {5cf76bf5-44ca-4e91-954e-7976110ae298}, !- Handle
  ASHRAE 189.1-2009 ExtWall Mass ClimateZone alt-res 1, !- Name
  ,                                       !- Surface Rendering Name
  {5b16f6aa-1578-4325-a9d1-4ca34762d850}, !- Layer 1
  {0f2da712-3db4-4c95-b773-cef659bd9a7a}, !- Layer 2
  {9ebce2d7-f76d-4f49-ad10-658070a08516}, !- Layer 3
  {10f37f1e-8a69-405f-a63c-8869b3aa4cd7}; !- Layer 4

OS:StandardsInformation:Construction,
  {3d2192e6-89bc-44bc-8240-f5e311e5a9b4}, !- Handle
  {5cf76bf5-44ca-4e91-954e-7976110ae298}, !- Construction Name
  ExteriorWall,                           !- Intended Surface Type
  Mass;                                   !- Standards Construction Type

OS:Construction,
  {0df4b50c-c418-46b5-af9d-2e0347088e45}, !- Handle
  ASHRAE 189.1-2009 ExtWall Mass ClimateZone alt-res 2, !- Name
  ,                                       !- Surface Rendering Name
  {5b16f6aa-1578-4325-a9d1-4ca34762d850}, !- Layer 1
  {0f2da712-3db4-4c95-b773-cef659bd9a7a}, !- Layer 2
  {fd3cc286-35f5-4001-acfc-1f138a068d56}, !- Layer 3
  {10f37f1e-8a69-405f-a63c-8869b3aa4cd7}; !- Layer 4

OS:StandardsInformation:Construction,
  {ab730c79-2158-4042-a2fb-b0246df9fd39}, !- Handle
  {0df4b50c-c418-46b5-af9d-2e0347088e45}, !- Construction Name
  ExteriorWall,                           !- Intended Surface Type
  Mass;                                   !- Standards Construction Type

OS:Construction,
  {2b96e1ba-d076-4ac5-8983-baa5b1cf26f2}, !- Handle
  ASHRAE 189.1-2009 ExtWall Mass ClimateZone alt-res 3, !- Name
  ,                                       !- Surface Rendering Name
  {5b16f6aa-1578-4325-a9d1-4ca34762d850}, !- Layer 1
  {0f2da712-3db4-4c95-b773-cef659bd9a7a}, !- Layer 2
  {ea8bf933-4751-4999-aa34-a015bc1bef3d}, !- Layer 3
  {10f37f1e-8a69-405f-a63c-8869b3aa4cd7}; !- Layer 4

OS:StandardsInformation:Construction,
  {45d81dee-7237-4827-b09b-b3ba704c4af4}, !- Handle
  {2b96e1ba-d076-4ac5-8983-baa5b1cf26f2}, !- Construction Name
  ExteriorWall,                           !- Intended Surface Type
  Mass;                                   !- Standards Construction Type

OS:Construction,
  {de39dfe7-ecb5-428a-a34e-94e025fe2205}, !- Handle
  ASHRAE 189.1-2009 ExtWall Mass ClimateZone alt-res 4, !- Name
  ,                                       !- Surface Rendering Name
  {5b16f6aa-1578-4325-a9d1-4ca34762d850}, !- Layer 1
  {0f2da712-3db4-4c95-b773-cef659bd9a7a}, !- Layer 2
  {983a1913-7e78-43b6-b8b7-cfb2da01a71c}, !- Layer 3
  {10f37f1e-8a69-405f-a63c-8869b3aa4cd7}; !- Layer 4

OS:StandardsInformation:Construction,
  {e25063cd-22e6-47f7-834c-814826721acc}, !- Handle
  {de39dfe7-ecb5-428a-a34e-94e025fe2205}, !- Construction Name
  ExteriorWall,                           !- Intended Surface Type
  Mass;                                   !- Standards Construction Type

OS:Construction,
  {b89a7306-8387-40a5-b97b-6e4726d519a9}, !- Handle
  ASHRAE 189.1-2009 ExtWall Mass ClimateZone alt-res 5, !- Name
  ,                                       !- Surface Rendering Name
  {5b16f6aa-1578-4325-a9d1-4ca34762d850}, !- Layer 1
  {0f2da712-3db4-4c95-b773-cef659bd9a7a}, !- Layer 2
  {a629884c-8c2a-4f13-8a89-94c802d530b7}, !- Layer 3
  {10f37f1e-8a69-405f-a63c-8869b3aa4cd7}; !- Layer 4

OS:StandardsInformation:Construction,
  {98f33d8e-5dac-4d47-8d19-496940dd9094}, !- Handle
  {b89a7306-8387-40a5-b97b-6e4726d519a9}, !- Construction Name
  ExteriorWall,                           !- Intended Surface Type
  Mass;                                   !- Standards Construction Type

OS:Construction,
  {3fd56a4b-0a69-4f43-8e75-d15f559060e3}, !- Handle
  ASHRAE 189.1-2009 ExtWall Mass ClimateZone alt-res 6, !- Name
  ,                                       !- Surface Rendering Name
  {5b16f6aa-1578-4325-a9d1-4ca34762d850}, !- Layer 1
  {0f2da712-3db4-4c95-b773-cef659bd9a7a}, !- Layer 2
  {dafa9f00-e8cf-4a60-80be-96122d094519}, !- Layer 3
  {10f37f1e-8a69-405f-a63c-8869b3aa4cd7}; !- Layer 4

OS:StandardsInformation:Construction,
  {99759a22-d92c-4608-80ae-21b232e9a2a1}, !- Handle
  {3fd56a4b-0a69-4f43-8e75-d15f559060e3}, !- Construction Name
  ExteriorWall,                           !- Intended Surface Type
  Mass;                                   !- Standards Construction Type

OS:Construction,
  {54398d3b-fb0f-49bc-b7e7-0c858e57cb55}, !- Handle
  ASHRAE 189.1-2009 ExtWall Mass ClimateZone alt-res 7, !- Name
  ,                                       !- Surface Rendering Name
  {5b16f6aa-1578-4325-a9d1-4ca34762d850}, !- Layer 1
  {0f2da712-3db4-4c95-b773-cef659bd9a7a}, !- Layer 2
  {dafa9f00-e8cf-4a60-80be-96122d094519}, !- Layer 3
  {10f37f1e-8a69-405f-a63c-8869b3aa4cd7}; !- Layer 4

OS:StandardsInformation:Construction,
  {dd63568e-07b7-427a-8e35-cbefb02ba379}, !- Handle
  {54398d3b-fb0f-49bc-b7e7-0c858e57cb55}, !- Construction Name
  ExteriorWall,                           !- Intended Surface Type
  Mass;                                   !- Standards Construction Type

OS:Construction,
  {45147852-8cfb-4e76-9067-edce02a3f732}, !- Handle
  ASHRAE 189.1-2009 ExtWall Mass ClimateZone alt-res 8, !- Name