
OS:Version,
  {b0718cb1-729a-47d5-918c-5e0e063faedf}, !- Handle
  1.2.3;                                  !- Version Identifier

OS:Construction,
  {4507d6fa-53eb-473e-a3a3-4c6bf5d34c60}, !- Handle
  ASHRAE 189.1-2009 AtticFloor ClimateZone 1-8, !- Name
  ,                                       !- Surface Rendering Name
  {5dd79f78-ae36-4a71-aedd-b3fd815eb78c}, !- Layer 1
  {535b620c-da6f-4740-b2b8-d9b372e67a96}, !- Layer 2
  {5dd79f78-ae36-4a71-aedd-b3fd815eb78c}; !- Layer 3

OS:StandardsInformation:Construction,
  {897d328f-ef54-4ce5-b7ec-8e3eafcd6e44}, !- Handle
  {4507d6fa-53eb-473e-a3a3-4c6bf5d34c60}, !- Construction Name
  AtticFloor,                             !- Intended Surface Type
  WoodFramed;                             !- Standards Construction Type

OS:Material,
  {5dd79f78-ae36-4a71-aedd-b3fd815eb78c}, !- Handle
  1/2IN Gypsum,                           !- Name
  Smooth,                                 !- Roughness
  0.0127,                                 !- Thickness {m}
  0.16,                                   !- Conductivity {W/m-K}
  784.9,                                  !- Density {kg/m3}
  830.000000000001,                       !- Specific Heat {J/kg-K}
  0.9,                                    !- Thermal Absorptance
  0.92,                                   !- Solar Absorptance
  0.92;                                   !- Visible Absorptance

OS:Material,
  {535b620c-da6f-4740-b2b8-d9b372e67a96}, !- Handle
  AtticFloor Insulation,                  !- Name
  MediumRough,                            !- Roughness
  0.2379,                                 !- Thickness {m}
  0.049,                                  !- Conductivity {W/m-K}
  265,                                    !- Density {kg/m3}
  836.800000000001,                       !- Specific Heat {J/kg-K}
  0.9,                                    !- Thermal Absorptance
  0.7,                                    !- Solar Absorptance
  0.7;                                    !- Visible Absorptance

OS:Construction,
  {03d105e6-fe2e-48b2-b9bb-ee70eb6b8a59}, !- Handle
  ASHRAE 189.1-2009 ExtRoof IEAD ClimateZone 1, !- Name
  ,                                       !- Surface Rendering Name
  {ae4935b2-16db-4948-97d9-1f001a4564b9}, !- Layer 1
  {97ea4010-99f1-473b-a8bf-ec3105b67be8}, !- Layer 2
  {772b9520-d7b4-49fa-a411-6a29eda06030}; !- Layer 3

OS:StandardsInformation:Construction,
  {15f89227-32d2-4960-96f8-33830b50f71a}, !- Handle
  {03d105e6-fe2e-48b2-b9bb-ee70eb6b8a59}, !- Construction Name
  ExteriorRoof,                           !- Intended Surface Type
  IEAD;                                   !- Standards Construction Type

OS:Material,
  {ae4935b2-16db-4948-97d9-1f001a4564b9}, !- Handle
  Roof Membrane,                          !- Name
  VeryRough,                              !- Roughness
  0.0095,                                 !- Thickness {m}
  0.16,                                   !- Conductivity {W/m-K}
  1121.29,                                !- Density {kg/m3}
  1460,                                   !- Specific Heat {J/kg-K}
  0.9,                                    !- Thermal Absorptance
  0.7,                                    !- Solar Absorptance
  0.7;                                    !- Visible Absorptance

OS:Material,
  {97ea4010-99f1-473b-a8bf-ec3105b67be8}, !- Handle
  Roof Insulation [18],                   !- Name
  MediumRough,                            !- Roughness
  0.1693,                                 !- Thickness {m}
  0.049,                                  !- Conductivity {W/m-K}
  265,                                    !- Density {kg/m3}
  836.800000000001,                       !- Specific Heat {J/kg-K}
  0.9,                                    !- Thermal Absorptance
  0.7,                                    !- Solar Absorptance
  0.7;                                    !- Visible Absorptance

OS:Material,
  {772b9520-d7b4-49fa-a411-6a29eda06030}, !- Handle
  Metal Decking,                          !- Name
  MediumSmooth,                           !- Roughness
  0.0015,                                 !- Thickness {m}
  45.006,                                 !- Conductivity {W/m-K}
  7680,                                   !- Density {kg/m3}
  418.4,                                  !- Specific Heat {J/kg-K}
  0.9,                                    !- Thermal Absorptance
  0.7,                                    !- Solar Absorptance
  0.3;                                    !- Visible Absorptance

OS:Construction,
  {99a3e71e-0403-427d-9234-f20bd095e492}, !- Handle
  ASHRAE 189.1-2009 ExtRoof IEAD ClimateZone 2-5, !- Name
  ,                                       !- Surface Rendering Name
  {ae4935b2-16db-4948-97d9-1f001a4564b9}, !- Layer 1
  {ce855785-64c4-48f9-bd67-aa0560f70f13}, !- Layer 2
  {772b9520-d7b4-49fa-a411-6a29eda06030}; !- Layer 3

OS:StandardsInformation:Construction,
  {4195fa25-7743-421e-9597-4ab5ba524cba}, !- Handle
  {99a3e71e-0403-427d-9234-f20bd095e492}, !- Construction Name
  ExteriorRoof,                           !- Intended Surface Type
  IEAD;                                   !- Standards Construction Type

OS:Material,
  {ce855785-64c4-48f9-bd67-aa0560f70f13}, !- Handle
  Roof Insulation [21],                   !- Name
  MediumRough,                            !- Roughness
  0.2105,                                 !- Thickness {m}
  0.049,                                  !- Conductivity {W/m-K}
  265,                                    !- Density {kg/m3}
  836.800000000001,                       !- Specific Heat {J/kg-K}
  0.9,                                    !- Thermal Absorptance
  0.7,                                    !- Solar Absorptance
  0.7;                                    !- Visible Absorptance

OS:Construction,
  {4222b664-5adb-4be6-8253-2da0239a4e2e}, !- Handle
  ASHRAE 189.1-2009 ExtRoof IEAD ClimateZone 6, !- Name
  ,                                       !- Surface Rendering Name
  {ae4935b2-16db-4948-97d9-1f001a4564b9}, !- Layer 1
  {cf09ff11-32e2-4459-90f3-ba5066f2c4ba}, !- Layer 2
  {772b9520-d7b4-49fa-a411-6a29eda06030}; !- Layer 3

OS:StandardsInformation:Construction,
  {bf0c341f-6228-4fce-a6e1-90179d84e66f}, !- Handle
  {4222b664-5adb-4be6-8253-2da0239a4e2e}, !- Construction Name
  ExteriorRoof,                           !- Intended Surface Type
  IEAD;                                   !- Standards Construction Type

OS:Material,
  {cf09ff11-32e2-4459-90f3-ba5066f2c4ba}, !- Handle
  Roof Insulation [24],                   !- Name
  MediumRough,                            !- Roughness
  0.260100000000001,                      !- Thickness {m}
  0.049,                                  !- Conductivity {W/m-K}
  265,                                    !- Density {kg/m3}
  836.800000000001,                       !- Specific Heat {J/kg-K}
  0.9,                                    !- Thermal Absorptance
  0.7,                                    !- Solar Absorptance
  0.7;                                    !- Visible Absorptance

OS:Construction,
  {49940e65-9cce-4b9c-861f-7dfd147c8e6c}, !- Handle
  ASHRAE 189.1-2009 ExtRoof IEAD ClimateZone 7-8, !- Name
  ,                                       !- Surface Rendering Name
  {ae4935b2-16db-4948-97d9-1f001a4564b9}, !- Layer 1
  {24fb716d-5912-4b14-9d64-f746bfd4207b}, !- Layer 2
  {772b9520-d7b4-49fa-a411-6a29eda06030}; !- Layer 3

OS:StandardsInformation:Construction,
  {ab2b14e2-aefc-4e12-829b-cbc04d54589d}, !- Handle
  {49940e65-9cce-4b9c-861f-7dfd147c8e6c}, !- Construction Name
  ExteriorRoof,                           !- Intended Surface Type
  IEAD;                                   !- Standards Construction Type

OS:Material,
  {24fb716d-5912-4b14-9d64-f746bfd4207b}, !- Handle
  Roof Insulation [26],                   !- Name
  MediumRough,                            !- Roughness
  0.2941,                                 !- Thickness {m}
  0.049,                                  !- Conductivity {W/m-K}
  265,                                    !- Density {kg/m3}
  836.800000000001,                       !- Specific Heat {J/kg-K}
  0.9,                                    !- Thermal Absorptance
  0.7,                                    !- Solar Absorptance
  0.7;                                    !- Visible Absorptance

OS:Construction,
  {47f7f738-3073-435f-9a12-ef28d103c46f}, !- Handle
  ASHRAE 189.1-2009 ExtRoof Metal ClimateZone 1, !- Name
  ,                                       !- Surface Rendering Name
  {9a43d206-29e9-4b14-b66a-5177e4dfe2c0}, !- Layer 1
  {7c5bbbab-39f4-45d3-85c1-b87541609f62}; !- Layer 2

OS:StandardsInformation:Construction,
  {46b79f3d-9574-4772-a636-fff83a2570de}, !- Handle
  {47f7f738-3073-435f-9a12-ef28d103c46f}, !- Construction Name
  ExteriorRoof,                           !- Intended Surface Type
  Metal;                                  !- Standards Construction Type

OS:Material,
  {9a43d206-29e9-4b14-b66a-5177e4dfe2c0}, !- Handle
  Metal Roofing,                          !- Name
  MediumSmooth,                           !- Roughness
  0.0015,                                 !- Thickness {m}
  45.006,                                 !- Conductivity {W/m-K}
  7680,                                   !- Density {kg/m3}
  418.4,                                  !- Specific Heat {J/kg-K}
  0.9,                                    !- Thermal Absorptance
  0.3,                                    !- Solar Absorptance
  0.3;                                    !- Visible Absorptance

OS:Material,
  {7c5bbbab-39f4-45d3-85c1-b87541609f62}, !- Handle
  Roof Insulation [19],                   !- Name
  MediumRough,                            !- Roughness
  0.1868,                                 !- Thickness {m}
  0.049,                                  !- Conductivity {W/m-K}
  265,                                    !- Density {kg/m3}
  836.800000000001,                       !- Specific Heat {J/kg-K}
  0.9,                                    !- Thermal Absorptance
  0.7,                                    !- Solar Absorptance
  0.7;                                    !- Visible Absorptance

OS:Construction,
  {d1c961c7-074a-4708-851a-c4c1668645e4}, !- Handle
  ASHRAE 189.1-2009 ExtRoof Metal ClimateZone 2-5, !- Name
  ,                                       !- Surface Rendering Name
  {9a43d206-29e9-4b14-b66a-5177e4dfe2c0}, !- Layer 1
  {481587b1-9de2-4294-b5cd-f8fc57e22995}; !- Layer 2

OS:StandardsInformation:Construction,
  {c73e201a-6a1d-493f-af61-dc9585b7296b}, !- Handle
  {d1c961c7-074a-4708-851a-c4c1668645e4}, !- Construction Name
  ExteriorRoof,                           !- Intended Surface Type
  Metal;                                  !- Standards Construction Type

OS:Material,
  {481587b1-9de2-4294-b5cd-f8fc57e22995}, !- Handle
  Roof Insulation [22],                   !- Name
  MediumRough,                            !- Roughness
  0.2358,                                 !- Thickness {m}
  0.049,                                  !- Conductivity {W/m-K}
  265,                                    !- Density {kg/m3}
  836.800000000001,                       !- Specific Heat {J/kg-K}
  0.9,                                    !- Thermal Absorptance
  0.7,                                    !- Solar Absorptance
  0.7;                                    !- Visible Absorptance

OS:Construction,
  {35d1ad98-36e2-457b-b808-4d930f927ae0}, !- Handle
  ASHRAE 189.1-2009 ExtRoof Metal ClimateZone 6, !- Name
  ,                                       !- Surface Rendering Name
  {9a43d206-29e9-4b14-b66a-5177e4dfe2c0}, !- Layer 1
  {59f27589-ea30-4185-af24-81411ff1f455}; !- Layer 2

OS:StandardsInformation:Construction,
  {467cfedc-4e60-4f0a-9079-3c252d143c4b}, !- Handle
  {35d1ad98-36e2-457b-b808-4d930f927ae0}, !- Construction Name
  ExteriorRoof,                           !- Intended Surface Type
  Metal;                                  !- Standards Construction Type

OS:Material,
  {59f27589-ea30-4185-af24-81411ff1f455}, !- Handle
  Roof Insulation [25],                   !- Name
  MediumRough,                            !- Roughness
  0.263,                                  !- Thickness {m}
  0.049,                                  !- Conductivity {W/m-K}
  265,                                    !- Density {kg/m3}
  836.800000000001,                       !- Specific Heat {J/kg-K}
  0.9,                                    !- Thermal Absorptance
  0.7,                                    !- Solar Absorptance
  0.7;                                    !- Visible Absorptance

OS:Construction,
  {78cee441-706c-49fe-a2d3-a76f8783ec3b}, !- Handle
  ASHRAE 189.1-2009 ExtRoof Metal ClimateZone 7-8, !- Name
  ,                                       !- Surface Rendering Name
  {9a43d206-29e9-4b14-b66a-5177e4dfe2c0}, !- Layer 1
  {78fe0ae9-b120-42da-948f-29b5349ee7b2}; !- Layer 2

OS:StandardsInformation:Construction,
  {11f5325b-d15d-41ce-ad44-c4a67ca3b44b}, !- Handle
  {78cee441-706c-49fe-a2d3-a76f8783ec3b}, !- Construction Name
  ExteriorRoof,                           !- Intended Surface Type
  Metal;                                  !- Standards Construction Type

OS:Material,
  {78fe0ae9-b120-42da-948f-29b5349ee7b2}, !- Handle
  Roof Insulation [27],                   !- Name
  MediumRough,                            !- Roughness
  0.297000000000001,                      !- Thickness {m}
  0.049,                                  !- Conductivity {W/m-K}
  265,                                    !- Density {kg/m3}
  836.800000000001,                       !- Specific Heat {J/kg-K}
  0.9,                                    !- Thermal Absorptance
  0.7,                                    !- Solar Absorptance
  0.7;                                    !- Visible Absorptance

OS:Construction,
  {e9c4fca6-c742-4627-8de1-4da84d4b0118}, !- Handle
  ASHRAE 189.1-2009 ExtWall Mass ClimateZone 1, !- Name
  ,                                       !- Surface Rendering Name
  {275e2358-5ca8-4102-af41-4a32fc7afe89}, !- Layer 1
  {36398c24-4468-4f62-8235-648745bf8cf3}, !- Layer 2
  {3b343320-418c-4612-b504-fbdda0f62a05}, !- Layer 3
  {5dd79f78-ae36-4a71-aedd-b3fd815eb78c}; !- Layer 4

OS:StandardsInformation:Construction,
  {bcd89cf7-05b2-4900-8793-6103993a7fd3}, !- Handle
  {e9c4fca6-c742-4627-8de1-4da84d4b0118}, !- Construction Name
  ExteriorWall,                           !- Intended Surface Type
  Mass;                                   !- Standards Construction Type

OS:Material,
  {275e2358-5ca8-4102-af41-4a32fc7afe89}, !- Handle
  1IN Stucco,                             !- Name
  Smooth,                                 !- Roughness
  0.0253,                                 !- Thickness {m}
  0.691799999999999,                      !- Conductivity {W/m-K}
  1858,                                   !- Density {kg/m3}
  836.999999999999,                       !- Specific Heat {J/kg-K}
  0.9,                                    !- Thermal Absorptance
  0.92,                                   !- Solar Absorptance
  0.92;                                   !- Visible Absorptance

OS:Material,
  {36398c24-4468-4f62-8235-648745bf8cf3}, !- Handle
  8IN Concrete HW,                        !- Name
  MediumRough,                            !- Roughness
  0.2033,                                 !- Thickness {m}
  1.72959999999999,                       !- Conductivity {W/m-K}
  2242.99999999999,                       !- Density {kg/m3}
  836.999999999999,                       !- Specific Heat {J/kg-K}
  0.9,                                    !- Thermal Absorptance
  0.65,                                   !- Solar Absorptance
  0.65;                                   !- Visible Absorptance

OS:Material,
  {3b343320-418c-4612-b504-fbdda0f62a05}, !- Handle
  Wall Insulation [31],                   !- Name
  MediumRough,                            !- Roughness
  0.0337000000000001,                     !- Thickness {m}
  0.0432,                                 !- Conductivity {W/m-K}
  91,                                     !- Density {kg/m3}
  836.999999999999,                       !- Specific Heat {J/kg-K}
  0.9,                                    !- Thermal Absorptance
  0.5,                                    !- Solar Absorptance
  0.5;                                    !- Visible Absorptance

OS:Construction,
  {f88fd941-f75a-4cb6-9b11-948352d7a7f5}, !- Handle
  ASHRAE 189.1-2009 ExtWall Mass ClimateZone 2, !- Name
  ,                                       !- Surface Rendering Name
  {275e2358-5ca8-4102-af41-4a32fc7afe89}, !- Layer 1
  {36398c24-4468-4f62-8235-648745bf8cf3}, !- Layer 2
  {d139a9de-4989-4717-a4a3-3bfe86c8d2cc}, !- Layer 3
  {5dd79f78-ae36-4a71-aedd-b3fd815eb78c}; !- Layer 4

OS:StandardsInformation:Construction,
  {30dba543-e713-4e13-b4ab-8f5cc91687d2}, !- Handle
  {f88fd941-f75a-4cb6-9b11-948352d7a7f5}, !- Construction Name
  ExteriorWall,                           !- Intended Surface Type
  Mass;                                   !- Standards Construction Type

OS:Material,
  {d139a9de-4989-4717-a4a3-3bfe86c8d2cc}, !- Handle
  Wall Insulation [35],                   !- Name
  MediumRough,                            !- Roughness
  0.0452,                                 !- Thickness {m}
  0.0432,                                 !- Conductivity {W/m-K}
  91,                                     !- Density {kg/m3}
  836.999999999999,                       !- Specific Heat {J/kg-K}
  0.9,                                    !- Thermal Absorptance
  0.5,                                    !- Solar Absorptance
  0.5;                                    !- Visible Absorptance

OS:Construction,
  {5424aa43-864d-4063-aa81-a9a4af2848f5}, !- Handle
  ASHRAE 189.1-2009 ExtWall Mass ClimateZone 3, !- Name
  ,                                       !- Surface Rendering Name
  {275e2358-5ca8-4102-af41-4a32fc7afe89}, !- Layer 1
  {36398c24-4468-4f62-8235-648745bf8cf3}, !- Layer 2
  {c2b6cb1a-a1c4-4841-bb39-c238046eb4e6}, !- Layer 3
  {5dd79f78-ae36-4a71-aedd-b3fd815eb78c}; !- Layer 4

OS:StandardsInformation:Construction,
  {0e9966fe-b345-4769-a77b-e4ce6fb094f5}, !- Handle
  {5424aa43-864d-4063-aa81-a9a4af2848f5}, !- Construction Name
  ExteriorWall,                           !- Intended Surface Type
  Mass;                                   !- Standards Construction Type

OS:Material,
  {c2b6cb1a-a1c4-4841-bb39-c238046eb4e6}, !- Handle
  Wall Insulation [36],                   !- Name
  MediumRough,                            !- Roughness
  0.0565999999999999,                     !- Thickness {m}
  0.0432,                                 !- Conductivity {W/m-K}
  91,                                     !- Density {kg/m3}
  836.999999999999,                       !- Specific Heat {J/kg-K}
  0.9,                                    !- Thermal Absorptance
  0.5,                                    !- Solar Absorptance
  0.5;                                    !- Visible Absorptance

OS:Construction,
  {87a9d641-e0ef-4676-a169-87be8fdb633e}, !- Handle
  ASHRAE 189.1-2009 ExtWall Mass ClimateZone 4, !- Name
  ,                                       !- Surface Rendering Name
  {275e2358-5ca8-4102-af41-4a32fc7afe89}, !- Layer 1
  {36398c24-4468-4f62-8235-648745bf8cf3}, !- Layer 2
  {dd573e14-4265-4ebe-8768-dc46e7b83db9}, !- Layer 3
  {5dd79f78-ae36-4a71-aedd-b3fd815eb78c}; !- Layer 4

OS:StandardsInformation:Construction,
  {1d5f61c1-903c-4759-802d-ba483cbe8823}, !- Handle
  {87a9d641-e0ef-4676-a169-87be8fdb633e}, !- Construction Name
  ExteriorWall,                           !- Intended Surface Type
  Mass;                                   !- Standards Construction Type

OS:Material,
  {dd573e14-4265-4ebe-8768-dc46e7b83db9}, !- Handle
  Wall Insulation [37],                   !- Name
  MediumRough,                            !- Roughness
  0.0680999999999999,                     !- Thickness {m}
  0.0432,                                 !- Conductivity {W/m-K}
  91,                                     !- Density {kg/m3}
  836.999999999999,                       !- Specific Heat {J/kg-K}
  0.9,                                    !- Thermal Absorptance
  0.5,                                    !- Solar Absorptance
  0.5;                                    !- Visible Absorptance

OS:Construction,
  {390212f8-7ecb-4dbb-b135-76a1d0efaf30}, !- Handle
  ASHRAE 189.1-2009 ExtWall Mass ClimateZone 5, !- Name
  ,                                       !- Surface Rendering Name
  {275e2358-5ca8-4102-af41-4a32fc7afe89}, !- Layer 1
  {36398c24-4468-4f62-8235-648745bf8cf3}, !- Layer 2
  {60172cc6-b9d7-438c-913c-925a1c805530}, !- Layer 3
  {5dd79f78-ae36-4a71-aedd-b3fd815eb78c}; !- Layer 4

OS:StandardsInformation:Construction,
  {a7725de0-d255-410b-9158-2a48417619ab}, !- Handle
  {390212f8-7ecb-4dbb-b135-76a1d0efaf30}, !- Construction Name
  ExteriorWall,                           !- Intended Surface Type
  Mass;                                   !- Standards Construction Type

OS:Material,
  {60172cc6-b9d7-438c-913c-925a1c805530}, !- Handle
  Wall Insulation [40],                   !- Name
  MediumRough,                            !- Roughness
  0.0793999999999999,                     !- Thickness {m}
  0.0432,                                 !- Conductivity {W/m-K}
  91,                                     !- Density {kg/m3}
  836.999999999999,                       !- Specific Heat {J/kg-K}
  0.9,                                    !- Thermal Absorptance
  0.5,                                    !- Solar Absorptance
  0.5;                                    !- Visible Absorptance

OS:Construction,
  {e5a4fdc8-7d42-480e-a432-7bc0c5da6591}, !- Handle
  ASHRAE 189.1-2009 ExtWall Mass ClimateZone 6, !- Name
  ,                                       !- Surface Rendering Name
  {275e2358-5ca8-4102-af41-4a32fc7afe89}, !- Layer 1
  {36398c24-4468-4f62-8235-648745bf8cf3}, !- Layer 2
  {32409440-fbde-4bab-bab4-400e7dc3e3a8}, !- Layer 3
  {5dd79f78-ae36-4a71-aedd-b3fd815eb78c}; !- Layer 4

OS:StandardsInformation:Construction,
  {5ee1ae3f-9ad6-49cb-9734-ba04d2b59f68}, !- Handle
  {e5a4fdc8-7d42-480e-a432-7bc0c5da6591}, !- Construction Name
  ExteriorWall,                           !- Intended Surface Type
  Mass;                                   !- Standards Construction Type

OS:Material,
  {32409440-fbde-4bab-bab4-400e7dc3e3a8}, !- Handle
  Wall Insulation [42],                   !- Name
  MediumRough,                            !- Roughness
  0.0913999999999999,                     !- Thickness {m}
  0.0432,                                 !- Conductivity {W/m-K}
  91,                                     !- Density {kg/m3}
  836.999999999999,                       !- Specific Heat {J/kg-K}
  0.9,                                    !- Thermal Absorptance
  0.5,                                    !- Solar Absorptance
  0.5;                                    !- Visible Absorptance

OS:Construction,
  {b394fc74-8fec-497b-a217-9025f88ef246}, !- Handle
  ASHRAE 189.1-2009 ExtWall Mass ClimateZone 7-8, !- Name
  ,                                       !- Surface Rendering Name
  {275e2358-5ca8-4102-af41-4a32fc7afe89}, !- Layer 1
  {36398c24-4468-4f62-8235-648745bf8cf3}, !- Layer 2
  {9dd52f13-6ee7-44f4-a828-ab20016b56c1}, !- Layer 3
  {5dd79f78-ae36-4a71-aedd-b3fd815eb78c}; !- Layer 4

OS:StandardsInformation:Construction,
  {f2d5d8cc-473c-4a94-a5a1-ada613464e1e}, !- Handle
  {b394fc74-8fec-497b-a217-9025f88ef246}, !- Construction Name
  ExteriorWall,                           !- Intended Surface Type
  Mass;                                   !- Standards Construction Type

OS:Material,
  {9dd52f13-6ee7-44f4-a828-ab20016b56c1}, !- Handle
  Wall Insulation [44],                   !- Name
  MediumRough,                            !- Roughness
  0.1104,                                 !- Thickness {m}
  0.0432,                                 !- Conductivity {W/m-K}
  91,                                     !- Density {kg/m3}
  836.999999999999,                       !- Specific Heat {J/kg-K}
  0.9,                                    !- Thermal Absorptance
  0.5,                                    !- Solar Absorptance
  0.5;                                    !- Visible Absorptance

OS:Construction,
  {3e664123-333e-47d2-aa2c-a470056a2268}, !- Handle
  ASHRAE 189.1-2009 ExtWall Mass ClimateZone alt-res 1, !- Name
  ,                                       !- Surface Rendering Name
  {275e2358-5ca8-4102-af41-4a32fc7afe89}, !- Layer 1
  {36398c24-4468-4f62-8235-648745bf8cf3}, !- Layer 2
  {d139a9de-4989-4717-a4a3-3bfe86c8d2cc}, !- Layer 3
  {5dd79f78-ae36-4a71-aedd-b3fd815eb78c}; !- Layer 4

OS:StandardsInformation:Construction,
  {f7fe0ac0-5e37-447a-b1a4-4817bbc11350}, !- Handle
  {3e664123-333e-47d2-aa2c-a470056a2268}, !- Construction Name
  ExteriorWall,                           !- Intended Surface Type
  Mass;                                   !- Standards Construction Type

OS:Construction,
  {2c2ee052-5295-4487-a3a1-a4cbb557fa5a}, !- Handle
  ASHRAE 189.1-2009 ExtWall Mass ClimateZone alt-res 2, !- Name
  ,                                       !- Surface Rendering Name
  {275e2358-5ca8-4102-af41-4a32fc7afe89}, !- Layer 1
  {36398c24-4468-4f62-8235-648745bf8cf3}, !- Layer 2
  {c2b6cb1a-a1c4-4841-bb39-c238046eb4e6}, !- Layer 3
  {5dd79f78-ae36-4a71-aedd-b3fd815eb78c}; !- Layer 4

OS:StandardsInformation:Construction,
  {3fba19dc-e84e-4957-810e-6dc03ad23e89}, !- Handle
  {2c2ee052-5295-4487-a3a1-a4cbb557fa5a}, !- Construction Name
  ExteriorWall,                           !- Intended Surface Type
  Mass;                                   !- Standards Construction Type

OS:Construction,
  {75976aec-a8fb-4d13-a0b0-9b76a87db304}, !- Handle
  ASHRAE 189.1-2009 ExtWall Mass ClimateZone alt-res 3, !- Name
  ,                                       !- Surface Rendering Name
  {275e2358-5ca8-4102-af41-4a32fc7afe89}, !- Layer 1
  {36398c24-4468-4f62-8235-648745bf8cf3}, !- Layer 2
  {dd573e14-4265-4ebe-8768-dc46e7b83db9}, !- Layer 3
  {5dd79f78-ae36-4a71-aedd-b3fd815eb78c}; !- Layer 4

OS:StandardsInformation:Construction,
  {5e5069a4-cbda-43fc-b04e-7583fbf33a74}, !- Handle
  {75976aec-a8fb-4d13-a0b0-9b76a87db304}, !- Construction Name
  ExteriorWall,                           !- Intended Surface Type
  Mass;                                   !- Standards Construction Type

OS:Construction,
  {6da163b8-b242-4ffe-84d7-11b61642eeb1}, !- Handle
  ASHRAE 189.1-2009 ExtWall Mass ClimateZone alt-res 4, !- Name
  ,                                       !- Surface Rendering Name
  {275e2358-5ca8-4102-af41-4a32fc7afe89}, !- Layer 1
  {36398c24-4468-4f62-8235-648745bf8cf3}, !- Layer 2
  {60172cc6-b9d7-438c-913c-925a1c805530}, !- Layer 3
  {5dd79f78-ae36-4a71-aedd-b3fd815eb78c}; !- Layer 4

OS:StandardsInformation:Construction,
  {52c72486-feb8-4cea-9cb0-a5885f6918aa}, !- Handle
  {6da163b8-b242-4ffe-84d7-11b61642eeb1}, !- Construction Name
  ExteriorWall,                           !- Intended Surface Type
  Mass;                                   !- Standards Construction Type

OS:Construction,
  {7c9f5fac-336f-4502-b145-fd3043b3e72e}, !- Handle
  ASHRAE 189.1-2009 ExtWall Mass ClimateZone alt-res 5, !- Name
  ,                                       !- Surface Rendering Name
  {275e2358-5ca8-4102-af41-4a32fc7afe89}, !- Layer 1
  {36398c24-4468-4f62-8235-648745bf8cf3}, !- Layer 2
  {32409440-fbde-4bab-bab4-400e7dc3e3a8}, !- Layer 3
  {5dd79f78-ae36-4a71-aedd-b3fd815eb78c}; !- Layer 4

OS:StandardsInformation:Construction,
  {97696001-a2d8-41b9-80de-22af1d240aa6}, !- Handle
  {7c9f5fac-336f-4502-b145-fd3043b3e72e}, !- Construction Name
  ExteriorWall,                           !- Intended Surface Type
  Mass;                                   !- Standards Construction Type

OS:Construction,
  {c141e189-c013-4554-98f7-e86bb044b676}, !- Handle
  ASHRAE 189.1-2009 ExtWall Mass ClimateZone alt-res 6, !- Name
  ,                                       !- Surface Rendering Name
  {275e2358-5ca8-4102-af41-4a32fc7afe89}, !- Layer 1
  {36398c24-4468-4f62-8235-648745bf8cf3}, !- Layer 2
  {9dd52f13-6ee7-44f4-a828-ab20016b56c1}, !- Layer 3
  {5dd79f78-ae36-4a71-aedd-b3fd815eb78c}; !- Layer 4

OS:StandardsInformation:Construction,
  {058b88fd-1cbd-4c56-84b5-85df6cc5e5bb}, !- Handle
  {c141e189-c013-4554-98f7-e86bb044b676}, !- Construction Name
  ExteriorWall,                           !- Intended Surface Type
  Mass;                                   !- Standards Construction Type

OS:Construction,
  {9b057b7c-f183-4a08-adeb-33e8c4490782}, !- Handle
  ASHRAE 189.1-2009 ExtWall Mass ClimateZone alt-res 7, !- Name
  ,                                       !- Surface Rendering Name
  {275e2358-5ca8-4102-af41-4a32fc7afe89}, !- Layer 1
  {36398c24-4468-4f62-8235-648745bf8cf3}, !- Layer 2
  {9dd52f13-6ee7-44f4-a828-ab20016b56c1}, !- Layer 3
  {5dd79f78-ae36-4a71-aedd-b3fd815eb78c}; !- Layer 4

OS:StandardsInformation:Construction,
  {a651dbab-e915-4dbc-bb61-4cb81f30bca3}, !- Handle
  {9b057b7c-f183-4a08-adeb-33e8c4490782}, !- Construction Name
  ExteriorWall,                           !- Intended Surface Type
  Mass;                                   !- Standards Construction Type

OS:Construction,
  {a0630c15-97b6-4ef5-bcfc-fa39be528727}, !- Handle
  ASHRAE 189.1-2009 ExtWall Mass ClimateZone alt-res 8, !- Name