
OS:Version,
  {48b9e5a5-0f00-4495-92dc-f77a6a66cc3f}, !- Handle
  1.4.0;                                  !- Version Identifier

OS:Construction,
  {6bc410b8-75c4-48e3-8a9c-7e4040fbc846}, !- Handle
  ASHRAE 189.1-2009 AtticFloor ClimateZone 1-8, !- Name
  ,                                       !- Surface Rendering Name
  {b2171b85-014d-4345-8878-10b1072e2ebb}, !- Layer 1
  {9ed33a59-701d-4253-811d-cca134e34ec1}, !- Layer 2
  {b2171b85-014d-4345-8878-10b1072e2ebb}; !- Layer 3

OS:StandardsInformation:Construction,
  {5ae0dbd8-f7be-42f1-a4d9-79a432cbb3c8}, !- Handle
  {6bc410b8-75c4-48e3-8a9c-7e4040fbc846}, !- Construction Name
  AtticFloor,                             !- Intended Surface Type
  WoodFramed;                             !- Standards Construction Type

OS:Material,
  {b2171b85-014d-4345-8878-10b1072e2ebb}, !- Handle
  1/2IN Gypsum,                           !- Name
  Smooth,                                 !- Roughness
  0.0127,                                 !- Thickness {m}
  0.16,                                   !- Conductivity {W/m-K}
  784.9,                                  !- Density {kg/m3}
  830.000000000001,                       !- Specific Heat {J/kg-K}
  0.9,                                    !- Thermal Absorptance
  0.4,                                    !- Solar Absorptance
  0.4;                                    !- Visible Absorptance

OS:Material,
  {9ed33a59-701d-4253-811d-cca134e34ec1}, !- Handle
  AtticFloor Insulation,                  !- Name
  MediumRough,                            !- Roughness
  0.2379,                                 !- Thickness {m}
  0.049,                                  !- Conductivity {W/m-K}
  265,                                    !- Density {kg/m3}
  836.800000000001,                       !- Specific Heat {J/kg-K}
  0.9,                                    !- Thermal Absorptance
  0.7,                                    !- Solar Absorptance
  0.7;                                    !- Visible Absorptance

OS:Construction,
  {b7af588c-7639-4e37-9cb2-0c91846a8c2c}, !- Handle
  ASHRAE 189.1-2009 ExtRoof IEAD ClimateZone 1, !- Name
  ,                                       !- Surface Rendering Name
  {6a7f71a3-bc65-45e9-94c5-65c021493f3e}, !- Layer 1
  {dcd1ed8c-828c-47a7-b479-7fcca37170cd}, !- Layer 2
  {136dcea6-39db-4993-9241-9f79fe8681ae}; !- Layer 3

OS:StandardsInformation:Construction,
  {1cea281b-ef38-4c8d-a967-1dd132c5a83c}, !- Handle
  {b7af588c-7639-4e37-9cb2-0c91846a8c2c}, !- Construction Name
  ExteriorRoof,                           !- Intended Surface Type
  IEAD;                                   !- Standards Construction Type

OS:Material,
  {6a7f71a3-bc65-45e9-94c5-65c021493f3e}, !- Handle
  Roof Membrane,                          !- Name
  VeryRough,                              !- Roughness
  0.0095,                                 !- Thickness {m}
  0.16,                                   !- Conductivity {W/m-K}
  1121.29,                                !- Density {kg/m3}
  1460,                                   !- Specific Heat {J/kg-K}
  0.9,                                    !- Thermal Absorptance
  0.7,                                    !- Solar Absorptance
  0.7;                                    !- Visible Absorptance

OS:Material,
  {dcd1ed8c-828c-47a7-b479-7fcca37170cd}, !- Handle
  Roof Insulation [18],                   !- Name
  MediumRough,                            !- Roughness
  0.1693,                                 !- Thickness {m}
  0.049,                                  !- Conductivity {W/m-K}
  265,                                    !- Density {kg/m3}
  836.800000000001,                       !- Specific Heat {J/kg-K}
  0.9,                                    !- Thermal Absorptance
  0.7,                                    !- Solar Absorptance
  0.7;                                    !- Visible Absorptance

OS:Material,
  {136dcea6-39db-4993-9241-9f79fe8681ae}, !- Handle
  Metal Decking,                          !- Name
  MediumSmooth,                           !- Roughness
  0.0015,                                 !- Thickness {m}
  45.006,                                 !- Conductivity {W/m-K}
  7680,                                   !- Density {kg/m3}
  418.4,                                  !- Specific Heat {J/kg-K}
  0.9,                                    !- Thermal Absorptance
  0.6,                                    !- Solar Absorptance
  0.6;                                    !- Visible Absorptance

OS:Construction,
  {2011be7d-a3d4-4846-99d6-524613c17d19}, !- Handle
  ASHRAE 189.1-2009 ExtRoof IEAD ClimateZone 2-5, !- Name
  ,                                       !- Surface Rendering Name
  {6a7f71a3-bc65-45e9-94c5-65c021493f3e}, !- Layer 1
  {d5c3ec9b-3efa-4582-b1b4-d18d69d793a4}, !- Layer 2
  {136dcea6-39db-4993-9241-9f79fe8681ae}; !- Layer 3

OS:StandardsInformation:Construction,
  {1f378051-d92f-434b-b0d1-0e4a005c9753}, !- Handle
  {2011be7d-a3d4-4846-99d6-524613c17d19}, !- Construction Name
  ExteriorRoof,                           !- Intended Surface Type
  IEAD;                                   !- Standards Construction Type

OS:Material,
  {d5c3ec9b-3efa-4582-b1b4-d18d69d793a4}, !- Handle
  Roof Insulation [21],                   !- Name
  MediumRough,                            !- Roughness
  0.2105,                                 !- Thickness {m}
  0.049,                                  !- Conductivity {W/m-K}
  265,                                    !- Density {kg/m3}
  836.800000000001,                       !- Specific Heat {J/kg-K}
  0.9,                                    !- Thermal Absorptance
  0.7,                                    !- Solar Absorptance
  0.7;                                    !- Visible Absorptance

OS:Construction,
  {49ff67df-ae4e-4ef6-9f96-23b85d6d0908}, !- Handle
  ASHRAE 189.1-2009 ExtRoof IEAD ClimateZone 6, !- Name
  ,                                       !- Surface Rendering Name
  {6a7f71a3-bc65-45e9-94c5-65c021493f3e}, !- Layer 1
  {7baedf32-2d86-45b2-9705-a48b94955d77}, !- Layer 2
  {136dcea6-39db-4993-9241-9f79fe8681ae}; !- Layer 3

OS:StandardsInformation:Construction,
  {9fb9eaa0-f7a2-48f6-82d3-9b63cda51351}, !- Handle
  {49ff67df-ae4e-4ef6-9f96-23b85d6d0908}, !- Construction Name
  ExteriorRoof,                           !- Intended Surface Type
  IEAD;                                   !- Standards Construction Type

OS:Material,
  {7baedf32-2d86-45b2-9705-a48b94955d77}, !- Handle
  Roof Insulation [24],                   !- Name
  MediumRough,                            !- Roughness
  0.260100000000001,                      !- Thickness {m}
  0.049,                                  !- Conductivity {W/m-K}
  265,                                    !- Density {kg/m3}
  836.800000000001,                       !- Specific Heat {J/kg-K}
  0.9,                                    !- Thermal Absorptance
  0.7,                                    !- Solar Absorptance
  0.7;                                    !- Visible Absorptance

OS:Construction,
  {9864eb42-3c76-4e12-bbda-f0647b70c398}, !- Handle
  ASHRAE 189.1-2009 ExtRoof IEAD ClimateZone 7-8, !- Name
  ,                                       !- Surface Rendering Name
  {6a7f71a3-bc65-45e9-94c5-65c021493f3e}, !- Layer 1
  {e05adf40-6941-475c-9965-432640edcf09}, !- Layer 2
  {136dcea6-39db-4993-9241-9f79fe8681ae}; !- Layer 3

OS:StandardsInformation:Construction,
  {534c2aec-751a-4ad7-a7b2-922cdc6d2a0a}, !- Handle
  {9864eb42-3c76-4e12-bbda-f0647b70c398}, !- Construction Name
  ExteriorRoof,                           !- Intended Surface Type
  IEAD;                                   !- Standards Construction Type

OS:Material,
  {e05adf40-6941-475c-9965-432640edcf09}, !- Handle
  Roof Insulation [26],                   !- Name
  MediumRough,                            !- Roughness
  0.2941,                                 !- Thickness {m}
  0.049,                                  !- Conductivity {W/m-K}
  265,                                    !- Density {kg/m3}
  836.800000000001,                       !- Specific Heat {J/kg-K}
  0.9,                                    !- Thermal Absorptance
  0.7,                                    !- Solar Absorptance
  0.7;                                    !- Visible Absorptance

OS:Construction,
  {ef1b3e07-e7b4-4987-a1f0-9d5004340374}, !- Handle
  ASHRAE 189.1-2009 ExtRoof Metal ClimateZone 1, !- Name
  ,                                       !- Surface Rendering Name
  {459fd103-5f23-4f74-b13b-ccafe3e1ead0}, !- Layer 1
  {e7a43101-a86b-4d48-8057-df9e7eb285f4}, !- Layer 2
  {136dcea6-39db-4993-9241-9f79fe8681ae}; !- Layer 3

OS:StandardsInformation:Construction,
  {9b601b53-27ad-42c4-86dc-06edc006b059}, !- Handle
  {ef1b3e07-e7b4-4987-a1f0-9d5004340374}, !- Construction Name
  ExteriorRoof,                           !- Intended Surface Type
  Metal;                                  !- Standards Construction Type

OS:Material,
  {459fd103-5f23-4f74-b13b-ccafe3e1ead0}, !- Handle
  Metal Roofing,                          !- Name
  MediumSmooth,                           !- Roughness
  0.0015,                                 !- Thickness {m}
  45.006,                                 !- Conductivity {W/m-K}
  7680,                                   !- Density {kg/m3}
  418.4,                                  !- Specific Heat {J/kg-K}
  0.9,                                    !- Thermal Absorptance
  0.6,                                    !- Solar Absorptance
  0.6;                                    !- Visible Absorptance

OS:Material,
  {e7a43101-a86b-4d48-8057-df9e7eb285f4}, !- Handle
  Roof Insulation [19],                   !- Name
  MediumRough,                            !- Roughness
  0.1868,                                 !- Thickness {m}
  0.049,                                  !- Conductivity {W/m-K}
  265,                                    !- Density {kg/m3}
  836.800000000001,                       !- Specific Heat {J/kg-K}
  0.9,                                    !- Thermal Absorptance
  0.7,                                    !- Solar Absorptance
  0.7;                                    !- Visible Absorptance

OS:Construction,
  {448e5863-066a-482b-99fd-62898d933380}, !- Handle
  ASHRAE 189.1-2009 ExtRoof Metal ClimateZone 2-5, !- Name
  ,                                       !- Surface Rendering Name
  {459fd103-5f23-4f74-b13b-ccafe3e1ead0}, !- Layer 1
  {dddb3212-cc0c-4e30-86e8-e5d15a0c7710}, !- Layer 2
  {136dcea6-39db-4993-9241-9f79fe8681ae}; !- Layer 3

OS:StandardsInformation:Construction,
  {88d6da30-0bb7-4f6f-8a76-77186a12b996}, !- Handle
  {448e5863-066a-482b-99fd-62898d933380}, !- Construction Name
  ExteriorRoof,                           !- Intended Surface Type
  Metal;                                  !- Standards Construction Type

OS:Material,
  {dddb3212-cc0c-4e30-86e8-e5d15a0c7710}, !- Handle
  Roof Insulation [22],                   !- Name
  MediumRough,                            !- Roughness
  0.2358,                                 !- Thickness {m}
  0.049,                                  !- Conductivity {W/m-K}
  265,                                    !- Density {kg/m3}
  836.800000000001,                       !- Specific Heat {J/kg-K}
  0.9,                                    !- Thermal Absorptance
  0.7,                                    !- Solar Absorptance
  0.7;                                    !- Visible Absorptance

OS:Construction,
  {b2873c27-e8d8-4f3e-a1a3-97546999e4fd}, !- Handle
  ASHRAE 189.1-2009 ExtRoof Metal ClimateZone 6, !- Name
  ,                                       !- Surface Rendering Name
  {459fd103-5f23-4f74-b13b-ccafe3e1ead0}, !- Layer 1
  {41367ad5-bced-4fde-b719-9cb6277dd01f}, !- Layer 2
  {136dcea6-39db-4993-9241-9f79fe8681ae}; !- Layer 3

OS:StandardsInformation:Construction,
  {820cc1a5-3a64-4632-94a7-df8c0733f7db}, !- Handle
  {b2873c27-e8d8-4f3e-a1a3-97546999e4fd}, !- Construction Name
  ExteriorRoof,                           !- Intended Surface Type
  Metal;                                  !- Standards Construction Type

OS:Material,
  {41367ad5-bced-4fde-b719-9cb6277dd01f}, !- Handle
  Roof Insulation [25],                   !- Name
  MediumRough,                            !- Roughness
  0.263,                                  !- Thickness {m}
  0.049,                                  !- Conductivity {W/m-K}
  265,                                    !- Density {kg/m3}
  836.800000000001,                       !- Specific Heat {J/kg-K}
  0.9,                                    !- Thermal Absorptance
  0.7,                                    !- Solar Absorptance
  0.7;                                    !- Visible Absorptance

OS:Construction,
  {0dffd121-2e53-415b-988e-f3ae281caea7}, !- Handle
  ASHRAE 189.1-2009 ExtRoof Metal ClimateZone 7-8, !- Name
  ,                                       !- Surface Rendering Name
  {459fd103-5f23-4f74-b13b-ccafe3e1ead0}, !- Layer 1
  {af6b6077-9de1-439b-ae59-f86f01c7fae1}, !- Layer 2
  {136dcea6-39db-4993-9241-9f79fe8681ae}; !- Layer 3

OS:StandardsInformation:Construction,
  {f66b5dc9-b119-4e7b-8496-5ae50362322d}, !- Handle
  {0dffd121-2e53-415b-988e-f3ae281caea7}, !- Construction Name
  ExteriorRoof,                           !- Intended Surface Type
  Metal;                                  !- Standards Construction Type

OS:Material,
  {af6b6077-9de1-439b-ae59-f86f01c7fae1}, !- Handle
  Roof Insulation [27],                   !- Name
  MediumRough,                            !- Roughness
  0.297000000000001,                      !- Thickness {m}
  0.049,                                  !- Conductivity {W/m-K}
  265,                                    !- Density {kg/m3}
  836.800000000001,                       !- Specific Heat {J/kg-K}
  0.9,                                    !- Thermal Absorptance
  0.7,                                    !- Solar Absorptance
  0.7;                                    !- Visible Absorptance

OS:Construction,
  {b012db9d-3991-45dd-8618-50450ee6e053}, !- Handle
  ASHRAE 189.1-2009 ExtWall Mass ClimateZone 1, !- Name
  ,                                       !- Surface Rendering Name
  {f5d8205b-292d-4c66-a55e-a74e9ede8a59}, !- Layer 1
  {a64d3dcf-d6ef-4865-9f81-b85d02a95f61}, !- Layer 2
  {1cd2ed8f-6cd1-4e73-9803-0c7ae6264ccd}, !- Layer 3
  {b2171b85-014d-4345-8878-10b1072e2ebb}; !- Layer 4

OS:StandardsInformation:Construction,
  {e5bf35fc-b184-4e56-8f34-c828904d167d}, !- Handle
  {b012db9d-3991-45dd-8618-50450ee6e053}, !- Construction Name
  ExteriorWall,                           !- Intended Surface Type
  Mass;                                   !- Standards Construction Type

OS:Material,
  {f5d8205b-292d-4c66-a55e-a74e9ede8a59}, !- Handle
  1IN Stucco,                             !- Name
  Smooth,                                 !- Roughness
  0.0253,                                 !- Thickness {m}
  0.691799999999999,                      !- Conductivity {W/m-K}
  1858,                                   !- Density {kg/m3}
  836.999999999999,                       !- Specific Heat {J/kg-K}
  0.9,                                    !- Thermal Absorptance
  0.92,                                   !- Solar Absorptance
  0.92;                                   !- Visible Absorptance

OS:Material,
  {a64d3dcf-d6ef-4865-9f81-b85d02a95f61}, !- Handle
  8IN Concrete HW,                        !- Name
  MediumRough,                            !- Roughness
  0.2033,                                 !- Thickness {m}
  1.72959999999999,                       !- Conductivity {W/m-K}
  2242.99999999999,                       !- Density {kg/m3}
  836.999999999999,                       !- Specific Heat {J/kg-K}
  0.9,                                    !- Thermal Absorptance
  0.65,                                   !- Solar Absorptance
  0.65;                                   !- Visible Absorptance

OS:Material,
  {1cd2ed8f-6cd1-4e73-9803-0c7ae6264ccd}, !- Handle
  Wall Insulation [31],                   !- Name
  MediumRough,                            !- Roughness
  0.0337000000000001,                     !- Thickness {m}
  0.0432,                                 !- Conductivity {W/m-K}
  91,                                     !- Density {kg/m3}
  836.999999999999,                       !- Specific Heat {J/kg-K}
  0.9,                                    !- Thermal Absorptance
  0.5,                                    !- Solar Absorptance
  0.5;                                    !- Visible Absorptance

OS:Construction,
  {4212df83-6e43-49a8-80ec-2a092aee5e6f}, !- Handle
  ASHRAE 189.1-2009 ExtWall Mass ClimateZone 2, !- Name
  ,                                       !- Surface Rendering Name
  {f5d8205b-292d-4c66-a55e-a74e9ede8a59}, !- Layer 1
  {a64d3dcf-d6ef-4865-9f81-b85d02a95f61}, !- Layer 2
  {95754b5a-6326-4c75-8685-e8428c96e4a6}, !- Layer 3
  {b2171b85-014d-4345-8878-10b1072e2ebb}; !- Layer 4

OS:StandardsInformation:Construction,
  {456ee15c-c5b4-4726-a3e7-edddd641bcee}, !- Handle
  {4212df83-6e43-49a8-80ec-2a092aee5e6f}, !- Construction Name
  ExteriorWall,                           !- Intended Surface Type
  Mass;                                   !- Standards Construction Type

OS:Material,
  {95754b5a-6326-4c75-8685-e8428c96e4a6}, !- Handle
  Wall Insulation [35],                   !- Name
  MediumRough,                            !- Roughness
  0.0452,                                 !- Thickness {m}
  0.0432,                                 !- Conductivity {W/m-K}
  91,                                     !- Density {kg/m3}
  836.999999999999,                       !- Specific Heat {J/kg-K}
  0.9,                                    !- Thermal Absorptance
  0.5,                                    !- Solar Absorptance
  0.5;                                    !- Visible Absorptance

OS:Construction,
  {83fa194c-c1cc-4c28-941c-87b45d3700aa}, !- Handle
  ASHRAE 189.1-2009 ExtWall Mass ClimateZone 3, !- Name
  ,                                       !- Surface Rendering Name
  {f5d8205b-292d-4c66-a55e-a74e9ede8a59}, !- Layer 1
  {a64d3dcf-d6ef-4865-9f81-b85d02a95f61}, !- Layer 2
  {e039b03b-2b65-4248-a3f6-9c0e1672fb9a}, !- Layer 3
  {b2171b85-014d-4345-8878-10b1072e2ebb}; !- Layer 4

OS:StandardsInformation:Construction,
  {9c972f7a-318f-4c10-9c78-8e50d8dbb125}, !- Handle
  {83fa194c-c1cc-4c28-941c-87b45d3700aa}, !- Construction Name
  ExteriorWall,                           !- Intended Surface Type
  Mass;                                   !- Standards Construction Type

OS:Material,
  {e039b03b-2b65-4248-a3f6-9c0e1672fb9a}, !- Handle
  Wall Insulation [36],                   !- Name
  MediumRough,                            !- Roughness
  0.0565999999999999,                     !- Thickness {m}
  0.0432,                                 !- Conductivity {W/m-K}
  91,                                     !- Density {kg/m3}
  836.999999999999,                       !- Specific Heat {J/kg-K}
  0.9,                                    !- Thermal Absorptance
  0.5,                                    !- Solar Absorptance
  0.5;                                    !- Visible Absorptance

OS:Construction,
  {f30aac0f-eb28-41ac-afbd-6ad3a6df7bbf}, !- Handle
  ASHRAE 189.1-2009 ExtWall Mass ClimateZone 4, !- Name
  ,                                       !- Surface Rendering Name
  {f5d8205b-292d-4c66-a55e-a74e9ede8a59}, !- Layer 1
  {a64d3dcf-d6ef-4865-9f81-b85d02a95f61}, !- Layer 2
  {25ed6242-1ce6-4bc6-bd61-da46898d59fc}, !- Layer 3
  {b2171b85-014d-4345-8878-10b1072e2ebb}; !- Layer 4

OS:StandardsInformation:Construction,
  {c661c841-0a96-47b2-a1de-f0a40154acbb}, !- Handle
  {f30aac0f-eb28-41ac-afbd-6ad3a6df7bbf}, !- Construction Name
  ExteriorWall,                           !- Intended Surface Type
  Mass;                                   !- Standards Construction Type

OS:Material,
  {25ed6242-1ce6-4bc6-bd61-da46898d59fc}, !- Handle
  Wall Insulation [37],                   !- Name
  MediumRough,                            !- Roughness
  0.0680999999999999,                     !- Thickness {m}
  0.0432,                                 !- Conductivity {W/m-K}
  91,                                     !- Density {kg/m3}
  836.999999999999,                       !- Specific Heat {J/kg-K}
  0.9,                                    !- Thermal Absorptance
  0.5,                                    !- Solar Absorptance
  0.5;                                    !- Visible Absorptance

OS:Construction,
  {fcf049b3-c3a7-4952-9274-5dae28e7d0e2}, !- Handle
  ASHRAE 189.1-2009 ExtWall Mass ClimateZone 5, !- Name
  ,                                       !- Surface Rendering Name
  {f5d8205b-292d-4c66-a55e-a74e9ede8a59}, !- Layer 1
  {a64d3dcf-d6ef-4865-9f81-b85d02a95f61}, !- Layer 2
  {32df9852-7fe4-4729-9be4-8fee70500e57}, !- Layer 3
  {b2171b85-014d-4345-8878-10b1072e2ebb}; !- Layer 4

OS:StandardsInformation:Construction,
  {88e50d53-710e-4b6d-9fcb-61bfe9dff425}, !- Handle
  {fcf049b3-c3a7-4952-9274-5dae28e7d0e2}, !- Construction Name
  ExteriorWall,                           !- Intended Surface Type
  Mass;                                   !- Standards Construction Type

OS:Material,
  {32df9852-7fe4-4729-9be4-8fee70500e57}, !- Handle
  Wall Insulation [40],                   !- Name
  MediumRough,                            !- Roughness
  0.0793999999999999,                     !- Thickness {m}
  0.0432,                                 !- Conductivity {W/m-K}
  91,                                     !- Density {kg/m3}
  836.999999999999,                       !- Specific Heat {J/kg-K}
  0.9,                                    !- Thermal Absorptance
  0.5,                                    !- Solar Absorptance
  0.5;                                    !- Visible Absorptance

OS:Construction,
  {40ebc2f9-3f45-4e53-9f96-6a1c771daa73}, !- Handle
  ASHRAE 189.1-2009 ExtWall Mass ClimateZone 6, !- Name
  ,                                       !- Surface Rendering Name
  {f5d8205b-292d-4c66-a55e-a74e9ede8a59}, !- Layer 1
  {a64d3dcf-d6ef-4865-9f81-b85d02a95f61}, !- Layer 2
  {e9d8cf58-67a5-44d4-85a3-60d5f17af254}, !- Layer 3
  {b2171b85-014d-4345-8878-10b1072e2ebb}; !- Layer 4

OS:StandardsInformation:Construction,
  {d9fac7f1-9626-4b8d-b5ec-9cb9212763dd}, !- Handle
  {40ebc2f9-3f45-4e53-9f96-6a1c771daa73}, !- Construction Name
  ExteriorWall,                           !- Intended Surface Type
  Mass;                                   !- Standards Construction Type

OS:Material,
  {e9d8cf58-67a5-44d4-85a3-60d5f17af254}, !- Handle
  Wall Insulation [42],                   !- Name
  MediumRough,                            !- Roughness
  0.0913999999999999,                     !- Thickness {m}
  0.0432,                                 !- Conductivity {W/m-K}
  91,                                     !- Density {kg/m3}
  836.999999999999,                       !- Specific Heat {J/kg-K}
  0.9,                                    !- Thermal Absorptance
  0.5,                                    !- Solar Absorptance
  0.5;                                    !- Visible Absorptance

OS:Construction,
  {591ad6ff-a781-42d2-aa2b-cb29745fccf0}, !- Handle
  ASHRAE 189.1-2009 ExtWall Mass ClimateZone 7-8, !- Name
  ,                                       !- Surface Rendering Name
  {f5d8205b-292d-4c66-a55e-a74e9ede8a59}, !- Layer 1
  {a64d3dcf-d6ef-4865-9f81-b85d02a95f61}, !- Layer 2
  {e628efb3-9405-48e1-af85-953612c1fd40}, !- Layer 3
  {b2171b85-014d-4345-8878-10b1072e2ebb}; !- Layer 4

OS:StandardsInformation:Construction,
  {0bc0d19c-5309-4767-bb09-cf6190f5fa02}, !- Handle
  {591ad6ff-a781-42d2-aa2b-cb29745fccf0}, !- Construction Name
  ExteriorWall,                           !- Intended Surface Type
  Mass;                                   !- Standards Construction Type

OS:Material,
  {e628efb3-9405-48e1-af85-953612c1fd40}, !- Handle
  Wall Insulation [44],                   !- Name
  MediumRough,                            !- Roughness
  0.1104,                                 !- Thickness {m}
  0.0432,                                 !- Conductivity {W/m-K}
  91,                                     !- Density {kg/m3}
  836.999999999999,                       !- Specific Heat {J/kg-K}
  0.9,                                    !- Thermal Absorptance
  0.5,                                    !- Solar Absorptance
  0.5;                                    !- Visible Absorptance

OS:Construction,
  {f6300765-b768-427a-ba8a-f2870d0d7232}, !- Handle
  ASHRAE 189.1-2009 ExtWall Mass ClimateZone alt-res 1, !- Name
  ,                                       !- Surface Rendering Name
  {f5d8205b-292d-4c66-a55e-a74e9ede8a59}, !- Layer 1
  {a64d3dcf-d6ef-4865-9f81-b85d02a95f61}, !- Layer 2
  {95754b5a-6326-4c75-8685-e8428c96e4a6}, !- Layer 3
  {b2171b85-014d-4345-8878-10b1072e2ebb}; !- Layer 4

OS:StandardsInformation:Construction,
  {1f2b0b25-c33e-4e54-b344-5ba1ff16da80}, !- Handle
  {f6300765-b768-427a-ba8a-f2870d0d7232}, !- Construction Name
  ExteriorWall,                           !- Intended Surface Type
  Mass;                                   !- Standards Construction Type

OS:Construction,
  {bf7a1924-47ac-4946-8872-be735e6b0065}, !- Handle
  ASHRAE 189.1-2009 ExtWall Mass ClimateZone alt-res 2, !- Name
  ,                                       !- Surface Rendering Name
  {f5d8205b-292d-4c66-a55e-a74e9ede8a59}, !- Layer 1
  {a64d3dcf-d6ef-4865-9f81-b85d02a95f61}, !- Layer 2
  {e039b03b-2b65-4248-a3f6-9c0e1672fb9a}, !- Layer 3
  {b2171b85-014d-4345-8878-10b1072e2ebb}; !- Layer 4

OS:StandardsInformation:Construction,
  {2718570f-c01b-4cf1-a97a-c2b3e198d756}, !- Handle
  {bf7a1924-47ac-4946-8872-be735e6b0065}, !- Construction Name
  ExteriorWall,                           !- Intended Surface Type
  Mass;                                   !- Standards Construction Type

OS:Construction,
  {83f83f82-1989-450d-a322-98433504220c}, !- Handle
  ASHRAE 189.1-2009 ExtWall Mass ClimateZone alt-res 3, !- Name
  ,                                       !- Surface Rendering Name
  {f5d8205b-292d-4c66-a55e-a74e9ede8a59}, !- Layer 1
  {a64d3dcf-d6ef-4865-9f81-b85d02a95f61}, !- Layer 2
  {25ed6242-1ce6-4bc6-bd61-da46898d59fc}, !- Layer 3
  {b2171b85-014d-4345-8878-10b1072e2ebb}; !- Layer 4

OS:StandardsInformation:Construction,
  {ab7178d0-6adb-48f1-9d0f-96a2fc57e17f}, !- Handle
  {83f83f82-1989-450d-a322-98433504220c}, !- Construction Name
  ExteriorWall,                           !- Intended Surface Type
  Mass;                                   !- Standards Construction Type

OS:Construction,
  {ca512985-0975-4834-b24e-ab6212d160f7}, !- Handle
  ASHRAE 189.1-2009 ExtWall Mass ClimateZone alt-res 4, !- Name
  ,                                       !- Surface Rendering Name
  {f5d8205b-292d-4c66-a55e-a74e9ede8a59}, !- Layer 1
  {a64d3dcf-d6ef-4865-9f81-b85d02a95f61}, !- Layer 2
  {32df9852-7fe4-4729-9be4-8fee70500e57}, !- Layer 3
  {b2171b85-014d-4345-8878-10b1072e2ebb}; !- Layer 4

OS:StandardsInformation:Construction,
  {d1397ef4-0b01-47e8-9ad3-f28a9830d111}, !- Handle
  {ca512985-0975-4834-b24e-ab6212d160f7}, !- Construction Name
  ExteriorWall,                           !- Intended Surface Type
  Mass;                                   !- Standards Construction Type

OS:Construction,
  {fbb64f5f-f363-4b20-80ad-77f2c554db68}, !- Handle
  ASHRAE 189.1-2009 ExtWall Mass ClimateZone alt-res 5, !- Name
  ,                                       !- Surface Rendering Name
  {f5d8205b-292d-4c66-a55e-a74e9ede8a59}, !- Layer 1
  {a64d3dcf-d6ef-4865-9f81-b85d02a95f61}, !- Layer 2
  {e9d8cf58-67a5-44d4-85a3-60d5f17af254}, !- Layer 3
  {b2171b85-014d-4345-8878-10b1072e2ebb}; !- Layer 4

OS:StandardsInformation:Construction,
  {198c6484-af8a-4e9a-879f-5809d595e38b}, !- Handle
  {fbb64f5f-f363-4b20-80ad-77f2c554db68}, !- Construction Name
  ExteriorWall,                           !- Intended Surface Type
  Mass;                                   !- Standards Construction Type

OS:Construction,
  {e4949f2b-f16a-4f3e-bd12-f71641959681}, !- Handle
  ASHRAE 189.1-2009 ExtWall Mass ClimateZone alt-res 6, !- Name
  ,                                       !- Surface Rendering Name
  {f5d8205b-292d-4c66-a55e-a74e9ede8a59}, !- Layer 1
  {a64d3dcf-d6ef-4865-9f81-b85d02a95f61}, !- Layer 2
  {e628efb3-9405-48e1-af85-953612c1fd40}, !- Layer 3
  {b2171b85-014d-4345-8878-10b1072e2ebb}; !- Layer 4

OS:StandardsInformation:Construction,
  {4dff9538-eea1-4d83-bc22-031d69207798}, !- Handle
  {e4949f2b-f16a-4f3e-bd12-f71641959681}, !- Construction Name
  ExteriorWall,                           !- Intended Surface Type
  Mass;                                   !- Standards Construction Type

OS:Construction,
  {e357e55b-8116-4ae7-9c6d-ad2e2d64808e}, !- Handle
  ASHRAE 189.1-2009 ExtWall Mass ClimateZone alt-res 7, !- Name
  ,                                       !- Surface Rendering Name
  {f5d8205b-292d-4c66-a55e-a74e9ede8a59}, !- Layer 1
  {a64d3dcf-d6ef-4865-9f81-b85d02a95f61}, !- Layer 2
  {e628efb3-9405-48e1-af85-953612c1fd40}, !- Layer 3
  {b2171b85-014d-4345-8878-10b1072e2ebb}; !- Layer 4

OS:StandardsInformation:Construction,
  {3e82857a-3d00-49a0-a818-1355148594fd}, !- Handle
  {e357e55b-8116-4ae7-9c6d-ad2e2d64808e}, !- Construction Name
  ExteriorWall,                           !- Intended Surface Type