
OS:Version,
  {5a443d3b-32aa-4f89-b5d2-47bf1802787a}, !- Handle
  1.3.3;                                  !- Version Identifier

OS:Construction,
  {c78aed8e-54ab-4efb-962e-2f785cb00c45}, !- Handle
  ASHRAE 189.1-2009 AtticFloor ClimateZone 1-8, !- Name
  ,                                       !- Surface Rendering Name
  {bd90f3ea-e68e-4432-a891-51ebe7905b81}, !- Layer 1
  {d3650658-85c8-4611-8a2d-e8271f09cf8c}, !- Layer 2
  {bd90f3ea-e68e-4432-a891-51ebe7905b81}; !- Layer 3

OS:StandardsInformation:Construction,
  {cf7f4fff-997c-42c2-b886-084ae488e384}, !- Handle
  {c78aed8e-54ab-4efb-962e-2f785cb00c45}, !- Construction Name
  AtticFloor,                             !- Intended Surface Type
  WoodFramed;                             !- Standards Construction Type

OS:Material,
  {bd90f3ea-e68e-4432-a891-51ebe7905b81}, !- Handle
  1/2IN Gypsum,                           !- Name
  Smooth,                                 !- Roughness
  0.0127,                                 !- Thickness {m}
  0.16,                                   !- Conductivity {W/m-K}
  784.9,                                  !- Density {kg/m3}
  830.000000000001,                       !- Specific Heat {J/kg-K}
  0.9,                                    !- Thermal Absorptance
  0.92,                                   !- Solar Absorptance
  0.92;                                   !- Visible Absorptance

OS:Material,
  {d3650658-85c8-4611-8a2d-e8271f09cf8c}, !- Handle
  AtticFloor Insulation,                  !- Name
  MediumRough,                            !- Roughness
  0.2379,                                 !- Thickness {m}
  0.049,                                  !- Conductivity {W/m-K}
  265,                                    !- Density {kg/m3}
  836.800000000001,                       !- Specific Heat {J/kg-K}
  0.9,                                    !- Thermal Absorptance
  0.7,                                    !- Solar Absorptance
  0.7;                                    !- Visible Absorptance

OS:Construction,
  {a46211fc-4a90-4599-8c18-de1b8e579384}, !- Handle
  ASHRAE 189.1-2009 ExtRoof IEAD ClimateZone 1, !- Name
  ,                                       !- Surface Rendering Name
  {2ef3f38e-4617-4e3d-b629-d0833b753589}, !- Layer 1
  {a916f0ca-3636-4f16-9ae9-f73ee3542a3a}, !- Layer 2
  {0e4f6ad0-8339-4495-a459-c4ef093c9426}; !- Layer 3

OS:StandardsInformation:Construction,
  {9ae6531a-08c4-4e81-97ae-85f9e4fe1f2a}, !- Handle
  {a46211fc-4a90-4599-8c18-de1b8e579384}, !- Construction Name
  ExteriorRoof,                           !- Intended Surface Type
  IEAD;                                   !- Standards Construction Type

OS:Material,
  {2ef3f38e-4617-4e3d-b629-d0833b753589}, !- Handle
  Roof Membrane,                          !- Name
  VeryRough,                              !- Roughness
  0.0095,                                 !- Thickness {m}
  0.16,                                   !- Conductivity {W/m-K}
  1121.29,                                !- Density {kg/m3}
  1460,                                   !- Specific Heat {J/kg-K}
  0.9,                                    !- Thermal Absorptance
  0.7,                                    !- Solar Absorptance
  0.7;                                    !- Visible Absorptance

OS:Material,
  {a916f0ca-3636-4f16-9ae9-f73ee3542a3a}, !- Handle
  Roof Insulation [18],                   !- Name
  MediumRough,                            !- Roughness
  0.1693,                                 !- Thickness {m}
  0.049,                                  !- Conductivity {W/m-K}
  265,                                    !- Density {kg/m3}
  836.800000000001,                       !- Specific Heat {J/kg-K}
  0.9,                                    !- Thermal Absorptance
  0.7,                                    !- Solar Absorptance
  0.7;                                    !- Visible Absorptance

OS:Material,
  {0e4f6ad0-8339-4495-a459-c4ef093c9426}, !- Handle
  Metal Decking,                          !- Name
  MediumSmooth,                           !- Roughness
  0.0015,                                 !- Thickness {m}
  45.006,                                 !- Conductivity {W/m-K}
  7680,                                   !- Density {kg/m3}
  418.4,                                  !- Specific Heat {J/kg-K}
  0.9,                                    !- Thermal Absorptance
  0.7,                                    !- Solar Absorptance
  0.3;                                    !- Visible Absorptance

OS:Construction,
  {f9493978-eede-461f-8a6e-ba298a8dfd8b}, !- Handle
  ASHRAE 189.1-2009 ExtRoof IEAD ClimateZone 2-5, !- Name
  ,                                       !- Surface Rendering Name
  {2ef3f38e-4617-4e3d-b629-d0833b753589}, !- Layer 1
  {f8deb01b-38cf-458e-a839-627a1ac1953c}, !- Layer 2
  {0e4f6ad0-8339-4495-a459-c4ef093c9426}; !- Layer 3

OS:StandardsInformation:Construction,
  {3d37a0e7-1c9e-4582-ac7e-c082595492a9}, !- Handle
  {f9493978-eede-461f-8a6e-ba298a8dfd8b}, !- Construction Name
  ExteriorRoof,                           !- Intended Surface Type
  IEAD;                                   !- Standards Construction Type

OS:Material,
  {f8deb01b-38cf-458e-a839-627a1ac1953c}, !- Handle
  Roof Insulation [21],                   !- Name
  MediumRough,                            !- Roughness
  0.2105,                                 !- Thickness {m}
  0.049,                                  !- Conductivity {W/m-K}
  265,                                    !- Density {kg/m3}
  836.800000000001,                       !- Specific Heat {J/kg-K}
  0.9,                                    !- Thermal Absorptance
  0.7,                                    !- Solar Absorptance
  0.7;                                    !- Visible Absorptance

OS:Construction,
  {21c2edd7-de65-431b-9c4a-0867c978ed90}, !- Handle
  ASHRAE 189.1-2009 ExtRoof IEAD ClimateZone 6, !- Name
  ,                                       !- Surface Rendering Name
  {2ef3f38e-4617-4e3d-b629-d0833b753589}, !- Layer 1
  {d070d791-dbd4-4e31-8b95-3388be0211b4}, !- Layer 2
  {0e4f6ad0-8339-4495-a459-c4ef093c9426}; !- Layer 3

OS:StandardsInformation:Construction,
  {d64e840c-b944-484c-92ce-9cf4de3b5397}, !- Handle
  {21c2edd7-de65-431b-9c4a-0867c978ed90}, !- Construction Name
  ExteriorRoof,                           !- Intended Surface Type
  IEAD;                                   !- Standards Construction Type

OS:Material,
  {d070d791-dbd4-4e31-8b95-3388be0211b4}, !- Handle
  Roof Insulation [24],                   !- Name
  MediumRough,                            !- Roughness
  0.260100000000001,                      !- Thickness {m}
  0.049,                                  !- Conductivity {W/m-K}
  265,                                    !- Density {kg/m3}
  836.800000000001,                       !- Specific Heat {J/kg-K}
  0.9,                                    !- Thermal Absorptance
  0.7,                                    !- Solar Absorptance
  0.7;                                    !- Visible Absorptance

OS:Construction,
  {c9245198-6288-452c-94b7-96a044f85ef3}, !- Handle
  ASHRAE 189.1-2009 ExtRoof IEAD ClimateZone 7-8, !- Name
  ,                                       !- Surface Rendering Name
  {2ef3f38e-4617-4e3d-b629-d0833b753589}, !- Layer 1
  {b85828a1-86b1-4b1c-9dd5-757325b09cc3}, !- Layer 2
  {0e4f6ad0-8339-4495-a459-c4ef093c9426}; !- Layer 3

OS:StandardsInformation:Construction,
  {e4994a7a-f352-4711-9fe1-261ccac9636e}, !- Handle
  {c9245198-6288-452c-94b7-96a044f85ef3}, !- Construction Name
  ExteriorRoof,                           !- Intended Surface Type
  IEAD;                                   !- Standards Construction Type

OS:Material,
  {b85828a1-86b1-4b1c-9dd5-757325b09cc3}, !- Handle
  Roof Insulation [26],                   !- Name
  MediumRough,                            !- Roughness
  0.2941,                                 !- Thickness {m}
  0.049,                                  !- Conductivity {W/m-K}
  265,                                    !- Density {kg/m3}
  836.800000000001,                       !- Specific Heat {J/kg-K}
  0.9,                                    !- Thermal Absorptance
  0.7,                                    !- Solar Absorptance
  0.7;                                    !- Visible Absorptance

OS:Construction,
  {ef84700a-2b20-4e17-9bff-bac9492b2017}, !- Handle
  ASHRAE 189.1-2009 ExtRoof Metal ClimateZone 1, !- Name
  ,                                       !- Surface Rendering Name
  {9eb0a429-3f75-4c95-8d19-5a6baf1d7ef1}, !- Layer 1
  {b382219d-208b-4aad-b547-2ee22a04ec94}; !- Layer 2

OS:StandardsInformation:Construction,
  {c9e5c164-9b30-4145-873b-252fad6205c7}, !- Handle
  {ef84700a-2b20-4e17-9bff-bac9492b2017}, !- Construction Name
  ExteriorRoof,                           !- Intended Surface Type
  Metal;                                  !- Standards Construction Type

OS:Material,
  {9eb0a429-3f75-4c95-8d19-5a6baf1d7ef1}, !- Handle
  Metal Roofing,                          !- Name
  MediumSmooth,                           !- Roughness
  0.0015,                                 !- Thickness {m}
  45.006,                                 !- Conductivity {W/m-K}
  7680,                                   !- Density {kg/m3}
  418.4,                                  !- Specific Heat {J/kg-K}
  0.9,                                    !- Thermal Absorptance
  0.3,                                    !- Solar Absorptance
  0.3;                                    !- Visible Absorptance

OS:Material,
  {b382219d-208b-4aad-b547-2ee22a04ec94}, !- Handle
  Roof Insulation [19],                   !- Name
  MediumRough,                            !- Roughness
  0.1868,                                 !- Thickness {m}
  0.049,                                  !- Conductivity {W/m-K}
  265,                                    !- Density {kg/m3}
  836.800000000001,                       !- Specific Heat {J/kg-K}
  0.9,                                    !- Thermal Absorptance
  0.7,                                    !- Solar Absorptance
  0.7;                                    !- Visible Absorptance

OS:Construction,
  {70bfc309-024e-47ed-b590-5393d5b4de1f}, !- Handle
  ASHRAE 189.1-2009 ExtRoof Metal ClimateZone 2-5, !- Name
  ,                                       !- Surface Rendering Name
  {9eb0a429-3f75-4c95-8d19-5a6baf1d7ef1}, !- Layer 1
  {de1591ed-d0ad-4edd-b6b2-f82e5051f6e4}; !- Layer 2

OS:StandardsInformation:Construction,
  {d7c96cba-7062-4f3c-97b6-ce9b484c5a5f}, !- Handle
  {70bfc309-024e-47ed-b590-5393d5b4de1f}, !- Construction Name
  ExteriorRoof,                           !- Intended Surface Type
  Metal;                                  !- Standards Construction Type

OS:Material,
  {de1591ed-d0ad-4edd-b6b2-f82e5051f6e4}, !- Handle
  Roof Insulation [22],                   !- Name
  MediumRough,                            !- Roughness
  0.2358,                                 !- Thickness {m}
  0.049,                                  !- Conductivity {W/m-K}
  265,                                    !- Density {kg/m3}
  836.800000000001,                       !- Specific Heat {J/kg-K}
  0.9,                                    !- Thermal Absorptance
  0.7,                                    !- Solar Absorptance
  0.7;                                    !- Visible Absorptance

OS:Construction,
  {b99ede6e-2814-4d49-9703-7e6cf11e9d45}, !- Handle
  ASHRAE 189.1-2009 ExtRoof Metal ClimateZone 6, !- Name
  ,                                       !- Surface Rendering Name
  {9eb0a429-3f75-4c95-8d19-5a6baf1d7ef1}, !- Layer 1
  {f7a65b47-92b5-4f05-9ec9-0bfed26bc43f}; !- Layer 2

OS:StandardsInformation:Construction,
  {3d2a01be-8705-4512-9d80-c0df6cfd9e1b}, !- Handle
  {b99ede6e-2814-4d49-9703-7e6cf11e9d45}, !- Construction Name
  ExteriorRoof,                           !- Intended Surface Type
  Metal;                                  !- Standards Construction Type

OS:Material,
  {f7a65b47-92b5-4f05-9ec9-0bfed26bc43f}, !- Handle
  Roof Insulation [25],                   !- Name
  MediumRough,                            !- Roughness
  0.263,                                  !- Thickness {m}
  0.049,                                  !- Conductivity {W/m-K}
  265,                                    !- Density {kg/m3}
  836.800000000001,                       !- Specific Heat {J/kg-K}
  0.9,                                    !- Thermal Absorptance
  0.7,                                    !- Solar Absorptance
  0.7;                                    !- Visible Absorptance

OS:Construction,
  {2bbeb005-a157-483d-a1a3-1e72db0af9ea}, !- Handle
  ASHRAE 189.1-2009 ExtRoof Metal ClimateZone 7-8, !- Name
  ,                                       !- Surface Rendering Name
  {9eb0a429-3f75-4c95-8d19-5a6baf1d7ef1}, !- Layer 1
  {0b48de1e-6afa-45b7-828b-6000f9cbf676}; !- Layer 2

OS:StandardsInformation:Construction,
  {ba021565-a40c-4d4a-95e5-372a9d267b6e}, !- Handle
  {2bbeb005-a157-483d-a1a3-1e72db0af9ea}, !- Construction Name
  ExteriorRoof,                           !- Intended Surface Type
  Metal;                                  !- Standards Construction Type

OS:Material,
  {0b48de1e-6afa-45b7-828b-6000f9cbf676}, !- Handle
  Roof Insulation [27],                   !- Name
  MediumRough,                            !- Roughness
  0.297000000000001,                      !- Thickness {m}
  0.049,                                  !- Conductivity {W/m-K}
  265,                                    !- Density {kg/m3}
  836.800000000001,                       !- Specific Heat {J/kg-K}
  0.9,                                    !- Thermal Absorptance
  0.7,                                    !- Solar Absorptance
  0.7;                                    !- Visible Absorptance

OS:Construction,
  {287882f1-2d71-4ab5-8b97-32596d99a132}, !- Handle
  ASHRAE 189.1-2009 ExtWall Mass ClimateZone 1, !- Name
  ,                                       !- Surface Rendering Name
  {fe57fd9c-deb9-4084-b9f2-2511ab073295}, !- Layer 1
  {7470751d-19a9-4e42-aefd-0ffe8cf4529b}, !- Layer 2
  {5b640287-6f90-45db-9d30-a0aaf484c2a0}, !- Layer 3
  {bd90f3ea-e68e-4432-a891-51ebe7905b81}; !- Layer 4

OS:StandardsInformation:Construction,
  {ac7db3fe-1054-4701-9382-0cfcbd61e8ea}, !- Handle
  {287882f1-2d71-4ab5-8b97-32596d99a132}, !- Construction Name
  ExteriorWall,                           !- Intended Surface Type
  Mass;                                   !- Standards Construction Type

OS:Material,
  {fe57fd9c-deb9-4084-b9f2-2511ab073295}, !- Handle
  1IN Stucco,                             !- Name
  Smooth,                                 !- Roughness
  0.0253,                                 !- Thickness {m}
  0.691799999999999,                      !- Conductivity {W/m-K}
  1858,                                   !- Density {kg/m3}
  836.999999999999,                       !- Specific Heat {J/kg-K}
  0.9,                                    !- Thermal Absorptance
  0.92,                                   !- Solar Absorptance
  0.92;                                   !- Visible Absorptance

OS:Material,
  {7470751d-19a9-4e42-aefd-0ffe8cf4529b}, !- Handle
  8IN Concrete HW,                        !- Name
  MediumRough,                            !- Roughness
  0.2033,                                 !- Thickness {m}
  1.72959999999999,                       !- Conductivity {W/m-K}
  2242.99999999999,                       !- Density {kg/m3}
  836.999999999999,                       !- Specific Heat {J/kg-K}
  0.9,                                    !- Thermal Absorptance
  0.65,                                   !- Solar Absorptance
  0.65;                                   !- Visible Absorptance

OS:Material,
  {5b640287-6f90-45db-9d30-a0aaf484c2a0}, !- Handle
  Wall Insulation [31],                   !- Name
  MediumRough,                            !- Roughness
  0.0337000000000001,                     !- Thickness {m}
  0.0432,                                 !- Conductivity {W/m-K}
  91,                                     !- Density {kg/m3}
  836.999999999999,                       !- Specific Heat {J/kg-K}
  0.9,                                    !- Thermal Absorptance
  0.5,                                    !- Solar Absorptance
  0.5;                                    !- Visible Absorptance

OS:Construction,
  {f6fdf048-40ff-4698-8cac-4fa7180b7294}, !- Handle
  ASHRAE 189.1-2009 ExtWall Mass ClimateZone 2, !- Name
  ,                                       !- Surface Rendering Name
  {fe57fd9c-deb9-4084-b9f2-2511ab073295}, !- Layer 1
  {7470751d-19a9-4e42-aefd-0ffe8cf4529b}, !- Layer 2
  {10b62d4e-30c1-46a3-a0c8-03d1fa172e9e}, !- Layer 3
  {bd90f3ea-e68e-4432-a891-51ebe7905b81}; !- Layer 4

OS:StandardsInformation:Construction,
  {b242cc76-4a1a-4878-8de3-d55eae02e67f}, !- Handle
  {f6fdf048-40ff-4698-8cac-4fa7180b7294}, !- Construction Name
  ExteriorWall,                           !- Intended Surface Type
  Mass;                                   !- Standards Construction Type

OS:Material,
  {10b62d4e-30c1-46a3-a0c8-03d1fa172e9e}, !- Handle
  Wall Insulation [35],                   !- Name
  MediumRough,                            !- Roughness
  0.0452,                                 !- Thickness {m}
  0.0432,                                 !- Conductivity {W/m-K}
  91,                                     !- Density {kg/m3}
  836.999999999999,                       !- Specific Heat {J/kg-K}
  0.9,                                    !- Thermal Absorptance
  0.5,                                    !- Solar Absorptance
  0.5;                                    !- Visible Absorptance

OS:Construction,
  {d0c952e6-6c80-4bd8-9c10-51a6539a5ef8}, !- Handle
  ASHRAE 189.1-2009 ExtWall Mass ClimateZone 3, !- Name
  ,                                       !- Surface Rendering Name
  {fe57fd9c-deb9-4084-b9f2-2511ab073295}, !- Layer 1
  {7470751d-19a9-4e42-aefd-0ffe8cf4529b}, !- Layer 2
  {55df3554-1330-47ca-acec-bfa832249e8a}, !- Layer 3
  {bd90f3ea-e68e-4432-a891-51ebe7905b81}; !- Layer 4

OS:StandardsInformation:Construction,
  {4228114e-001d-4f24-a5ec-edba5f10e295}, !- Handle
  {d0c952e6-6c80-4bd8-9c10-51a6539a5ef8}, !- Construction Name
  ExteriorWall,                           !- Intended Surface Type
  Mass;                                   !- Standards Construction Type

OS:Material,
  {55df3554-1330-47ca-acec-bfa832249e8a}, !- Handle
  Wall Insulation [36],                   !- Name
  MediumRough,                            !- Roughness
  0.0565999999999999,                     !- Thickness {m}
  0.0432,                                 !- Conductivity {W/m-K}
  91,                                     !- Density {kg/m3}
  836.999999999999,                       !- Specific Heat {J/kg-K}
  0.9,                                    !- Thermal Absorptance
  0.5,                                    !- Solar Absorptance
  0.5;                                    !- Visible Absorptance

OS:Construction,
  {552495de-8b4d-42f0-b87c-7618d89094b7}, !- Handle
  ASHRAE 189.1-2009 ExtWall Mass ClimateZone 4, !- Name
  ,                                       !- Surface Rendering Name
  {fe57fd9c-deb9-4084-b9f2-2511ab073295}, !- Layer 1
  {7470751d-19a9-4e42-aefd-0ffe8cf4529b}, !- Layer 2
  {ede3e028-b03f-4742-82a8-f3eb3f36758d}, !- Layer 3
  {bd90f3ea-e68e-4432-a891-51ebe7905b81}; !- Layer 4

OS:StandardsInformation:Construction,
  {84819518-fc2c-4ea9-ab71-97a34a08e186}, !- Handle
  {552495de-8b4d-42f0-b87c-7618d89094b7}, !- Construction Name
  ExteriorWall,                           !- Intended Surface Type
  Mass;                                   !- Standards Construction Type

OS:Material,
  {ede3e028-b03f-4742-82a8-f3eb3f36758d}, !- Handle
  Wall Insulation [37],                   !- Name
  MediumRough,                            !- Roughness
  0.0680999999999999,                     !- Thickness {m}
  0.0432,                                 !- Conductivity {W/m-K}
  91,                                     !- Density {kg/m3}
  836.999999999999,                       !- Specific Heat {J/kg-K}
  0.9,                                    !- Thermal Absorptance
  0.5,                                    !- Solar Absorptance
  0.5;                                    !- Visible Absorptance

OS:Construction,
  {4c58a027-fe46-4b29-85a4-30e1ef732ad3}, !- Handle
  ASHRAE 189.1-2009 ExtWall Mass ClimateZone 5, !- Name
  ,                                       !- Surface Rendering Name
  {fe57fd9c-deb9-4084-b9f2-2511ab073295}, !- Layer 1
  {7470751d-19a9-4e42-aefd-0ffe8cf4529b}, !- Layer 2
  {cd9e4abb-551c-4157-932a-d0bcac18386f}, !- Layer 3
  {bd90f3ea-e68e-4432-a891-51ebe7905b81}; !- Layer 4

OS:StandardsInformation:Construction,
  {e92b54d5-6123-4a62-a249-cf0efc119cf7}, !- Handle
  {4c58a027-fe46-4b29-85a4-30e1ef732ad3}, !- Construction Name
  ExteriorWall,                           !- Intended Surface Type
  Mass;                                   !- Standards Construction Type

OS:Material,
  {cd9e4abb-551c-4157-932a-d0bcac18386f}, !- Handle
  Wall Insulation [40],                   !- Name
  MediumRough,                            !- Roughness
  0.0793999999999999,                     !- Thickness {m}
  0.0432,                                 !- Conductivity {W/m-K}
  91,                                     !- Density {kg/m3}
  836.999999999999,                       !- Specific Heat {J/kg-K}
  0.9,                                    !- Thermal Absorptance
  0.5,                                    !- Solar Absorptance
  0.5;                                    !- Visible Absorptance

OS:Construction,
  {8f38d887-5939-4923-a3e1-b09f26edb31e}, !- Handle
  ASHRAE 189.1-2009 ExtWall Mass ClimateZone 6, !- Name
  ,                                       !- Surface Rendering Name
  {fe57fd9c-deb9-4084-b9f2-2511ab073295}, !- Layer 1
  {7470751d-19a9-4e42-aefd-0ffe8cf4529b}, !- Layer 2
  {9e58dd87-16bd-4500-8292-4912a3bbb4cb}, !- Layer 3
  {bd90f3ea-e68e-4432-a891-51ebe7905b81}; !- Layer 4

OS:StandardsInformation:Construction,
  {6cfc664b-4479-4ce2-a782-d07f373f8cb8}, !- Handle
  {8f38d887-5939-4923-a3e1-b09f26edb31e}, !- Construction Name
  ExteriorWall,                           !- Intended Surface Type
  Mass;                                   !- Standards Construction Type

OS:Material,
  {9e58dd87-16bd-4500-8292-4912a3bbb4cb}, !- Handle
  Wall Insulation [42],                   !- Name
  MediumRough,                            !- Roughness
  0.0913999999999999,                     !- Thickness {m}
  0.0432,                                 !- Conductivity {W/m-K}
  91,                                     !- Density {kg/m3}
  836.999999999999,                       !- Specific Heat {J/kg-K}
  0.9,                                    !- Thermal Absorptance
  0.5,                                    !- Solar Absorptance
  0.5;                                    !- Visible Absorptance

OS:Construction,
  {71725dac-cfe6-42c3-9d38-c9f0bf1eec09}, !- Handle
  ASHRAE 189.1-2009 ExtWall Mass ClimateZone 7-8, !- Name
  ,                                       !- Surface Rendering Name
  {fe57fd9c-deb9-4084-b9f2-2511ab073295}, !- Layer 1
  {7470751d-19a9-4e42-aefd-0ffe8cf4529b}, !- Layer 2
  {fe71442f-de2d-409f-aea7-95649f187c6b}, !- Layer 3
  {bd90f3ea-e68e-4432-a891-51ebe7905b81}; !- Layer 4

OS:StandardsInformation:Construction,
  {5c3eb0ae-4db0-40be-9dc3-c8c47e7e7214}, !- Handle
  {71725dac-cfe6-42c3-9d38-c9f0bf1eec09}, !- Construction Name
  ExteriorWall,                           !- Intended Surface Type
  Mass;                                   !- Standards Construction Type

OS:Material,
  {fe71442f-de2d-409f-aea7-95649f187c6b}, !- Handle
  Wall Insulation [44],                   !- Name
  MediumRough,                            !- Roughness
  0.1104,                                 !- Thickness {m}
  0.0432,                                 !- Conductivity {W/m-K}
  91,                                     !- Density {kg/m3}
  836.999999999999,                       !- Specific Heat {J/kg-K}
  0.9,                                    !- Thermal Absorptance
  0.5,                                    !- Solar Absorptance
  0.5;                                    !- Visible Absorptance

OS:Construction,
  {4a6567a5-4b1e-44b9-9bea-1feb7ff16967}, !- Handle
  ASHRAE 189.1-2009 ExtWall Mass ClimateZone alt-res 1, !- Name
  ,                                       !- Surface Rendering Name
  {fe57fd9c-deb9-4084-b9f2-2511ab073295}, !- Layer 1
  {7470751d-19a9-4e42-aefd-0ffe8cf4529b}, !- Layer 2
  {10b62d4e-30c1-46a3-a0c8-03d1fa172e9e}, !- Layer 3
  {bd90f3ea-e68e-4432-a891-51ebe7905b81}; !- Layer 4

OS:StandardsInformation:Construction,
  {6f5025f2-55ef-4781-9992-641d6b5a487f}, !- Handle
  {4a6567a5-4b1e-44b9-9bea-1feb7ff16967}, !- Construction Name
  ExteriorWall,                           !- Intended Surface Type
  Mass;                                   !- Standards Construction Type

OS:Construction,
  {8ce4878e-47db-4458-b4ac-93e8a230088d}, !- Handle
  ASHRAE 189.1-2009 ExtWall Mass ClimateZone alt-res 2, !- Name
  ,                                       !- Surface Rendering Name
  {fe57fd9c-deb9-4084-b9f2-2511ab073295}, !- Layer 1
  {7470751d-19a9-4e42-aefd-0ffe8cf4529b}, !- Layer 2
  {55df3554-1330-47ca-acec-bfa832249e8a}, !- Layer 3
  {bd90f3ea-e68e-4432-a891-51ebe7905b81}; !- Layer 4

OS:StandardsInformation:Construction,
  {67117dcc-dc53-42a6-8745-ebc68bc13a2d}, !- Handle
  {8ce4878e-47db-4458-b4ac-93e8a230088d}, !- Construction Name
  ExteriorWall,                           !- Intended Surface Type
  Mass;                                   !- Standards Construction Type

OS:Construction,
  {1e4e9c1c-cd35-4c00-a046-9c9d58ef99bb}, !- Handle
  ASHRAE 189.1-2009 ExtWall Mass ClimateZone alt-res 3, !- Name
  ,                                       !- Surface Rendering Name
  {fe57fd9c-deb9-4084-b9f2-2511ab073295}, !- Layer 1
  {7470751d-19a9-4e42-aefd-0ffe8cf4529b}, !- Layer 2
  {ede3e028-b03f-4742-82a8-f3eb3f36758d}, !- Layer 3
  {bd90f3ea-e68e-4432-a891-51ebe7905b81}; !- Layer 4

OS:StandardsInformation:Construction,
  {e9bfc8a6-0a8d-4046-ac6b-21b965f673de}, !- Handle
  {1e4e9c1c-cd35-4c00-a046-9c9d58ef99bb}, !- Construction Name
  ExteriorWall,                           !- Intended Surface Type
  Mass;                                   !- Standards Construction Type

OS:Construction,
  {9af134ec-ddf7-43d8-9518-4668f2da705b}, !- Handle
  ASHRAE 189.1-2009 ExtWall Mass ClimateZone alt-res 4, !- Name
  ,                                       !- Surface Rendering Name
  {fe57fd9c-deb9-4084-b9f2-2511ab073295}, !- Layer 1
  {7470751d-19a9-4e42-aefd-0ffe8cf4529b}, !- Layer 2
  {cd9e4abb-551c-4157-932a-d0bcac18386f}, !- Layer 3
  {bd90f3ea-e68e-4432-a891-51ebe7905b81}; !- Layer 4

OS:StandardsInformation:Construction,
  {e70f575f-92d3-48bb-9582-8a3be33153fb}, !- Handle
  {9af134ec-ddf7-43d8-9518-4668f2da705b}, !- Construction Name
  ExteriorWall,                           !- Intended Surface Type
  Mass;                                   !- Standards Construction Type

OS:Construction,
  {4ae67d44-e92e-4324-a666-5992360e8220}, !- Handle
  ASHRAE 189.1-2009 ExtWall Mass ClimateZone alt-res 5, !- Name
  ,                                       !- Surface Rendering Name
  {fe57fd9c-deb9-4084-b9f2-2511ab073295}, !- Layer 1
  {7470751d-19a9-4e42-aefd-0ffe8cf4529b}, !- Layer 2
  {9e58dd87-16bd-4500-8292-4912a3bbb4cb}, !- Layer 3
  {bd90f3ea-e68e-4432-a891-51ebe7905b81}; !- Layer 4

OS:StandardsInformation:Construction,
  {827ac571-bcaf-4f1d-8ce2-2ce87084082c}, !- Handle
  {4ae67d44-e92e-4324-a666-5992360e8220}, !- Construction Name
  ExteriorWall,                           !- Intended Surface Type
  Mass;                                   !- Standards Construction Type

OS:Construction,
  {3f817494-7669-426d-a473-82c8071d2229}, !- Handle
  ASHRAE 189.1-2009 ExtWall Mass ClimateZone alt-res 6, !- Name
  ,                                       !- Surface Rendering Name
  {fe57fd9c-deb9-4084-b9f2-2511ab073295}, !- Layer 1
  {7470751d-19a9-4e42-aefd-0ffe8cf4529b}, !- Layer 2
  {fe71442f-de2d-409f-aea7-95649f187c6b}, !- Layer 3
  {bd90f3ea-e68e-4432-a891-51ebe7905b81}; !- Layer 4

OS:StandardsInformation:Construction,
  {62bfdb27-0bbb-4960-93f4-9dccfdca0286}, !- Handle
  {3f817494-7669-426d-a473-82c8071d2229}, !- Construction Name
  ExteriorWall,                           !- Intended Surface Type
  Mass;                                   !- Standards Construction Type

OS:Construction,
  {d10e5e88-7fc6-4b66-b95b-cccfb7161653}, !- Handle
  ASHRAE 189.1-2009 ExtWall Mass ClimateZone alt-res 7, !- Name
  ,                                       !- Surface Rendering Name
  {fe57fd9c-deb9-4084-b9f2-2511ab073295}, !- Layer 1
  {7470751d-19a9-4e42-aefd-0ffe8cf4529b}, !- Layer 2
  {fe71442f-de2d-409f-aea7-95649f187c6b}, !- Layer 3
  {bd90f3ea-e68e-4432-a891-51ebe7905b81}; !- Layer 4

OS:StandardsInformation:Construction,
  {c68a4d19-d4af-4e2b-8f9c-d76b8bd24ae3}, !- Handle
  {d10e5e88-7fc6-4b66-b95b-cccfb7161653}, !- Construction Name
  ExteriorWall,                           !- Intended Surface Type
  Mass;                                   !- Standards Construction Type

OS:Construction,
  {826580a7-5573-46c3-92eb-dca9f453216e}, !- Handle
  ASHRAE 189.1-2009 ExtWall Mass ClimateZone alt-res 8, !- Name