
OS:Version,
  {14b20bf5-62f0-4760-95f5-f71bbc7bccfb}, !- Handle
  0.11.5;                                 !- Version Identifier

OS:Schedule:Constant,
  {2467da69-a52b-4589-8f55-cafee8e87bf9}, !- Handle
  Always On Discrete,                     !- Name
  {24dde65f-4eda-4e2e-8a74-5b112cd1b024}, !- Schedule Type Limits Name
  1;                                      !- Value

OS:ScheduleTypeLimits,
  {24dde65f-4eda-4e2e-8a74-5b112cd1b024}, !- Handle
  Always On Discrete Limits,              !- Name
  0,                                      !- Lower Limit Value {BasedOnField A4}
  1,                                      !- Upper Limit Value {BasedOnField A4}
  Discrete,                               !- Numeric Type
  Availability;                           !- Unit Type

OS:Building,
  {3e65c9e8-e2f9-4b4e-b0c3-89b3cd6528cc}, ! Handle
  Super Market,                           ! Name
  ,                                       ! Building Type
  -0,                                     ! North Axis
  ,                                       ! Nominal Floor to Floor Height
  {a684cb0e-12d0-4333-bd91-834c4c62727e}, ! Space Type Name
  {4a48b95d-04dc-4a5d-975b-4f7edbaca1fc}, ! Default Construction Set Name
  ;                                       ! Default Schedule Set Name

OS:Construction,
  {025897bd-8fe0-449c-bf2e-a4f55903df3e}, ! Handle
  000 AtticRoof ClimateZone 1-8,          ! Name
  {0bb5a3d7-7abe-4be8-b16b-e6959d7e8b8a}, ! Surface Rendering Name
  {c46af0f9-8a57-4441-bf78-e8b36fcdd251}, ! Layer 1
  {56b3c1a3-eadb-4b0e-ae82-bce24e4272dc}; ! Layer 2

OS:Construction,
  {5a0d9943-1316-41bb-a179-615a4b1e04f2}, ! Handle
  000 ExtSlabCarpet 4in ClimateZone 1-8,  ! Name
  {f22cb9e6-be69-4729-8542-71734df98674}, ! Surface Rendering Name
  {ec03a154-5296-4b2c-b372-2fc99249114d}, ! Layer 1
  {dd088127-ba1d-4f29-aef7-8e7a0c6e89ee}; ! Layer 2

OS:Construction,
  {65a982cf-9351-4def-9571-5150896c2700}, ! Handle
  000 ExtSlabCarpet 8in ClimateZone 1-8,  ! Name
  {8853314f-b843-47d0-a5a5-7d991726a73f}, ! Surface Rendering Name
  {28141a3a-c71c-4923-a1b3-18ce0ee64160}, ! Layer 1
  {dd088127-ba1d-4f29-aef7-8e7a0c6e89ee}; ! Layer 2

OS:Construction,
  {ac8faa41-f61f-40a0-8938-1f80aa7521e9}, ! Handle
  000 ExtSlab 4in ClimateZone 1-8,        ! Name
  {24d5f3ee-a2f6-4bd2-9b12-b6a790cdba1b}, ! Surface Rendering Name
  {ec03a154-5296-4b2c-b372-2fc99249114d}; ! Layer 1

OS:Construction,
  {70e07178-e53a-4e77-ac97-a6acea3f109f}, ! Handle
  000 ExtSlab 8in ClimateZone 1-8,        ! Name
  {857b04fc-6987-4e0b-af19-4e158fc98000}, ! Surface Rendering Name
  {28141a3a-c71c-4923-a1b3-18ce0ee64160}; ! Layer 1

OS:Construction,
  {36628855-60a9-45fe-98a9-88f0f3a6f503}, ! Handle
  000 Exterior Door,                      ! Name
  {5b9e4ef7-f060-4807-98c8-1e5b4d0798a1}, ! Surface Rendering Name
  {87564484-bfdc-45f4-9556-dc226b84e6a4}, ! Layer 1
  {59f80177-3394-4db2-9a86-c86a8dc664e6}; ! Layer 2

OS:Construction,
  {ffda19f3-c8e0-4389-a923-c94e80c06528}, ! Handle
  000 Exterior Floor,                     ! Name
  {135bd0a2-f652-4a09-8f31-ca59d22de150}, ! Surface Rendering Name
  {2a4c08fd-3f70-4e67-be83-e5ee8301b441}, ! Layer 1
  {68af01e8-538a-4ddc-a97e-f714ea095ed8}; ! Layer 2

OS:Construction,
  {d8955c0f-4e89-4b73-a304-8c99588ba298}, ! Handle
  000 Exterior Roof,                      ! Name
  {86d8b0f0-fae8-4998-9086-89357216a444}, ! Surface Rendering Name
  {c2658cec-4bb9-4d55-8b4f-4a68eab2c6d3}, ! Layer 1
  {76d5bd5a-12ca-4614-b261-b93561988ef9}, ! Layer 2
  {474e5fa6-8b53-4a31-8d43-482732c77a18}; ! Layer 3

OS:Construction,
  {b1d5a715-2c25-4124-95bf-ea287a027600}, ! Handle
  000 Exterior Wall,                      ! Name
  {c095b672-a484-4454-9aad-624d7770d99f}, ! Surface Rendering Name
  {0857739b-792a-4adc-9eec-70a2a6b38e10}, ! Layer 1
  {68af01e8-538a-4ddc-a97e-f714ea095ed8}, ! Layer 2
  {2a4c08fd-3f70-4e67-be83-e5ee8301b441}, ! Layer 3
  {2d1f8b9e-1e6f-4daf-85c0-65f6c3c96def}, ! Layer 4
  {a6c49751-5622-484e-ba90-14487afe8d54}; ! Layer 5

OS:Construction,
  {4415f4b0-7dc7-486d-a5aa-fe3c12afe799}, ! Handle
  000 Exterior Window,                    ! Name
  {bc244ec8-5222-4a04-ba25-70f0f1433df8}, ! Surface Rendering Name
  {e1907669-41a8-4b78-86c7-a83e99e3d548}, ! Layer 1
  {c326cdcb-5e70-4ce8-85cb-a79585ec76b9}, ! Layer 2
  {e1907669-41a8-4b78-86c7-a83e99e3d548}; ! Layer 3

OS:Construction,
  {494906f1-13e0-4635-a125-911e21cfb4b5}, ! Handle
  000 Interior Ceiling,                   ! Name
  {e81bddbc-ca2b-4e0d-bad0-1a7cb9905b77}, ! Surface Rendering Name
  {c2658cec-4bb9-4d55-8b4f-4a68eab2c6d3}, ! Layer 1
  {76d5bd5a-12ca-4614-b261-b93561988ef9}, ! Layer 2
  {474e5fa6-8b53-4a31-8d43-482732c77a18}; ! Layer 3

OS:Construction,
  {af0ce963-022e-4c50-b4f7-ff4887a68d17}, ! Handle
  000 Interior Door,                      ! Name
  {cddfc9e4-fd4a-40f2-a353-86b039158f5b}, ! Surface Rendering Name
  {b212e1d3-10b8-4bc2-986c-3a9048fd85ec}; ! Layer 1

OS:Construction,
  {00fa8baa-e259-4225-a2b1-669a5a2bc390}, ! Handle
  000 Interior Floor,                     ! Name
  {ccc18a3b-7940-4891-bdf8-8fce7fbb2443}, ! Surface Rendering Name
  {474e5fa6-8b53-4a31-8d43-482732c77a18}, ! Layer 1
  {76d5bd5a-12ca-4614-b261-b93561988ef9}, ! Layer 2
  {c2658cec-4bb9-4d55-8b4f-4a68eab2c6d3}; ! Layer 3

OS:Construction,
  {1ec2b1a9-683a-4f88-8b55-999a5de06a7b}, ! Handle
  000 Interior Partition,                 ! Name
  {ef7078a4-938d-4a19-81a6-8290bf7f7aca}, ! Surface Rendering Name
  {b212e1d3-10b8-4bc2-986c-3a9048fd85ec}; ! Layer 1

OS:Construction,
  {45ee137d-4c45-4f5a-b774-5832589df0cb}, ! Handle
  000 Interior Wall,                      ! Name
  {692d40cf-a943-4ae8-b4c2-eec7e50f5ff0}, ! Surface Rendering Name
  {a6c49751-5622-484e-ba90-14487afe8d54}, ! Layer 1
  {2d1f8b9e-1e6f-4daf-85c0-65f6c3c96def}, ! Layer 2
  {a6c49751-5622-484e-ba90-14487afe8d54}; ! Layer 3

OS:Construction,
  {e48f6157-ed0c-4919-a510-a84007e10aba}, ! Handle
  000 Interior Window,                    ! Name
  {80429a30-50eb-41c1-90b7-2d5b54edbd7f}, ! Surface Rendering Name
  {e1907669-41a8-4b78-86c7-a83e99e3d548}; ! Layer 1

OS:Construction,
  {6d8a9c7c-ebaa-4acb-8c77-9602c2747ca7}, ! Handle
  ASHRAE 189.1-2009 AtticFloor ClimateZone 1-8, ! Name
  {684c6eb3-8532-48e8-ab50-79ecfaaf7f18}, ! Surface Rendering Name
  {2d70add8-0bea-4b7a-b7e1-fcfa5fdfb19b}, ! Layer 1
  {a0770158-4515-4163-a774-7a2c859a431f}, ! Layer 2
  {2d70add8-0bea-4b7a-b7e1-fcfa5fdfb19b}; ! Layer 3

OS:Construction,
  {64e8433a-4bc7-4913-8988-de178ae4f3ac}, ! Handle
  ASHRAE 189.1-2009 ExtRoof IEAD ClimateZone 1, ! Name
  {74c1a659-7bdb-435e-bb61-847d90ce509b}, ! Surface Rendering Name
  {c46af0f9-8a57-4441-bf78-e8b36fcdd251}, ! Layer 1
  {7362d39c-8aa6-4d9c-a4e9-cc9f23c724e8}, ! Layer 2
  {56b3c1a3-eadb-4b0e-ae82-bce24e4272dc}; ! Layer 3

OS:Construction,
  {89be96fc-604a-4b5b-9ceb-977e97b61e11}, ! Handle
  ASHRAE 189.1-2009 ExtRoof IEAD ClimateZone 2-5, ! Name
  {a230f2a7-f986-4a78-932e-7a74975bc455}, ! Surface Rendering Name
  {c46af0f9-8a57-4441-bf78-e8b36fcdd251}, ! Layer 1
  {c983e125-26fc-404b-bb85-e550e790e798}, ! Layer 2
  {56b3c1a3-eadb-4b0e-ae82-bce24e4272dc}; ! Layer 3

OS:Construction,
  {1cef9567-c5f2-4c9a-8d98-0e1a78bc7960}, ! Handle
  ASHRAE 189.1-2009 ExtRoof IEAD ClimateZone 6, ! Name
  {58121c67-8b70-4422-add8-95f2957e4261}, ! Surface Rendering Name
  {c46af0f9-8a57-4441-bf78-e8b36fcdd251}, ! Layer 1
  {222c5739-081d-49d1-b780-664ba1c20f11}, ! Layer 2
  {56b3c1a3-eadb-4b0e-ae82-bce24e4272dc}; ! Layer 3

OS:Construction,
  {3dc8e353-4dc1-4bbc-919d-f36bac59b7c5}, ! Handle
  ASHRAE 189.1-2009 ExtRoof IEAD ClimateZone 7-8, ! Name
  {4166287a-cf8a-4a88-a3a9-99c4ab764393}, ! Surface Rendering Name
  {c46af0f9-8a57-4441-bf78-e8b36fcdd251}, ! Layer 1
  {4afeb257-163f-4906-8aa9-4ec657a03a3d}, ! Layer 2
  {56b3c1a3-eadb-4b0e-ae82-bce24e4272dc}; ! Layer 3

OS:Construction,
  {fe41d6c9-ebd7-4c9a-9f26-10f0ea5c94c0}, ! Handle
  ASHRAE 189.1-2009 ExtRoof Metal ClimateZone 1, ! Name
  {150d5d43-b9da-4e1b-9f82-b1be2cf5baa1}, ! Surface Rendering Name
  {0183e4b7-1467-48c8-90ef-5b401643cda4}, ! Layer 1
  {a701c9da-a217-4b07-bf7e-907c29649b7a}; ! Layer 2

OS:Construction,
  {cdb224a6-175d-45bf-9c15-d694981bbcaf}, ! Handle
  ASHRAE 189.1-2009 ExtRoof Metal ClimateZone 2-5, ! Name
  {9249f0d6-98b3-49f3-aeb6-85609622e072}, ! Surface Rendering Name
  {0183e4b7-1467-48c8-90ef-5b401643cda4}, ! Layer 1
  {679672de-bcef-494e-a6c0-cfb72932fcc2}; ! Layer 2

OS:Construction,
  {bb12bf35-6048-4be2-82f7-d3b5afec8388}, ! Handle
  ASHRAE 189.1-2009 ExtRoof Metal ClimateZone 6, ! Name
  {20b73a68-13fe-41bd-81ff-ab385030d1a5}, ! Surface Rendering Name
  {0183e4b7-1467-48c8-90ef-5b401643cda4}, ! Layer 1
  {7387924d-d639-4928-9e42-71cf58b62841}; ! Layer 2

OS:Construction,
  {ce19d6e4-ece1-4acd-b990-41a87dd2468b}, ! Handle
  ASHRAE 189.1-2009 ExtRoof Metal ClimateZone 7-8, ! Name
  {3d017378-f1dd-4761-8dc7-858892269c55}, ! Surface Rendering Name
  {0183e4b7-1467-48c8-90ef-5b401643cda4}, ! Layer 1
  {a5d93465-00cf-4969-b6fd-62362f0f062c}; ! Layer 2

OS:Construction,
  {e61091d5-aba7-4879-aceb-74552aadfe03}, ! Handle
  ASHRAE 189.1-2009 ExtWall Mass ClimateZone 1, ! Name
  {d624df01-9b8f-41b3-a1cf-f0a91b3d1a50}, ! Surface Rendering Name
  {6e74310a-77c3-4b2d-af58-761d64335b74}, ! Layer 1
  {cf3d9a52-2551-45cd-9e2e-0241a444e529}, ! Layer 2
  {df2eb54c-6f3a-4a8b-8f71-cf0cdf8c591f}, ! Layer 3
  {2d70add8-0bea-4b7a-b7e1-fcfa5fdfb19b}; ! Layer 4

OS:Construction,
  {c4c40819-b40a-43cb-a887-5abac616f4be}, ! Handle
  ASHRAE 189.1-2009 ExtWall Mass ClimateZone 2, ! Name
  {0c8d7d49-87b7-4dfd-b6a0-b41fd400828a}, ! Surface Rendering Name
  {6e74310a-77c3-4b2d-af58-761d64335b74}, ! Layer 1
  {cf3d9a52-2551-45cd-9e2e-0241a444e529}, ! Layer 2
  {9724da90-9a49-4ec8-8665-781ac5a9d989}, ! Layer 3
  {2d70add8-0bea-4b7a-b7e1-fcfa5fdfb19b}; ! Layer 4

OS:Construction,
  {d7fc1bc6-ceed-4d43-b038-a15fad93fc69}, ! Handle
  ASHRAE 189.1-2009 ExtWall Mass ClimateZone 3, ! Name
  {298243fa-ec8c-4309-a0cc-fc4fcd596c36}, ! Surface Rendering Name
  {6e74310a-77c3-4b2d-af58-761d64335b74}, ! Layer 1
  {cf3d9a52-2551-45cd-9e2e-0241a444e529}, ! Layer 2
  {64f0dd01-c7b7-410b-ab5c-ce0f92667316}, ! Layer 3
  {2d70add8-0bea-4b7a-b7e1-fcfa5fdfb19b}; ! Layer 4

OS:Construction,
  {cefd67c7-eafd-48d3-a43a-ceb63f9b8816}, ! Handle
  ASHRAE 189.1-2009 ExtWall Mass ClimateZone 4, ! Name
  {da923b4f-8e84-49b9-953f-f0cd4e61c096}, ! Surface Rendering Name
  {6e74310a-77c3-4b2d-af58-761d64335b74}, ! Layer 1
  {cf3d9a52-2551-45cd-9e2e-0241a444e529}, ! Layer 2
  {49e204fa-b372-4ad6-ad18-6772c8670db7}, ! Layer 3
  {2d70add8-0bea-4b7a-b7e1-fcfa5fdfb19b}; ! Layer 4

OS:Construction,
  {62ff4428-3168-4cfc-873b-cbc2b0aa5963}, ! Handle
  ASHRAE 189.1-2009 ExtWall Mass ClimateZone 5, ! Name
  {0d3ad8bb-43ef-4cb2-8649-634294c0b58b}, ! Surface Rendering Name
  {6e74310a-77c3-4b2d-af58-761d64335b74}, ! Layer 1
  {cf3d9a52-2551-45cd-9e2e-0241a444e529}, ! Layer 2
  {fd5d9fda-c289-4985-aead-7c88fa8ec93e}, ! Layer 3
  {2d70add8-0bea-4b7a-b7e1-fcfa5fdfb19b}; ! Layer 4

OS:Construction,
  {13ce0a9f-0294-4d49-9d94-cc583c24cb7e}, ! Handle
  ASHRAE 189.1-2009 ExtWall Mass ClimateZone 6, ! Name
  {b82710e3-6561-418c-8714-1c8b438beba8}, ! Surface Rendering Name
  {6e74310a-77c3-4b2d-af58-761d64335b74}, ! Layer 1
  {cf3d9a52-2551-45cd-9e2e-0241a444e529}, ! Layer 2
  {bc3c27bb-bbce-4777-b3c1-62a12b7e6386}, ! Layer 3
  {2d70add8-0bea-4b7a-b7e1-fcfa5fdfb19b}; ! Layer 4

OS:Construction,
  {c1704dc2-6cb8-4e68-89eb-3e8f1823ce22}, ! Handle
  ASHRAE 189.1-2009 ExtWall Mass ClimateZone 7-8, ! Name
  {539be36b-5531-49aa-887e-1a5e8f1bb0d3}, ! Surface Rendering Name
  {6e74310a-77c3-4b2d-af58-761d64335b74}, ! Layer 1
  {cf3d9a52-2551-45cd-9e2e-0241a444e529}, ! Layer 2
  {da266e4f-21d6-4ed2-a82f-9fcc12997da1}, ! Layer 3
  {2d70add8-0bea-4b7a-b7e1-fcfa5fdfb19b}; ! Layer 4

OS:Construction,
  {c5f78042-0862-40c3-adfc-580273deec3d}, ! Handle
  ASHRAE 189.1-2009 ExtWall Mass ClimateZone alt-res 1, ! Name
  {f801efe2-4b32-4fa5-b94a-c7ceb708b0bc}, ! Surface Rendering Name
  {6e74310a-77c3-4b2d-af58-761d64335b74}, ! Layer 1
  {cf3d9a52-2551-45cd-9e2e-0241a444e529}, ! Layer 2
  {9724da90-9a49-4ec8-8665-781ac5a9d989}, ! Layer 3
  {2d70add8-0bea-4b7a-b7e1-fcfa5fdfb19b}; ! Layer 4

OS:Construction,
  {9b53d83f-5260-4eae-87d1-1e52c67f59a6}, ! Handle
  ASHRAE 189.1-2009 ExtWall Mass ClimateZone alt-res 2, ! Name
  {a88c5ed6-96e2-4ad7-9138-0c2c2c06c63b}, ! Surface Rendering Name
  {6e74310a-77c3-4b2d-af58-761d64335b74}, ! Layer 1
  {cf3d9a52-2551-45cd-9e2e-0241a444e529}, ! Layer 2
  {64f0dd01-c7b7-410b-ab5c-ce0f92667316}, ! Layer 3
  {2d70add8-0bea-4b7a-b7e1-fcfa5fdfb19b}; ! Layer 4

OS:Construction,
  {a8e3c7e9-c7fe-41d8-b5f3-1d86d973e2ac}, ! Handle
  ASHRAE 189.1-2009 ExtWall Mass ClimateZone alt-res 3, ! Name
  {491adef2-6b5b-47e3-8334-bf5e903c7a5f}, ! Surface Rendering Name
  {6e74310a-77c3-4b2d-af58-761d64335b74}, ! Layer 1
  {cf3d9a52-2551-45cd-9e2e-0241a444e529}, ! Layer 2
  {49e204fa-b372-4ad6-ad18-6772c8670db7}, ! Layer 3
  {2d70add8-0bea-4b7a-b7e1-fcfa5fdfb19b}; ! Layer 4

OS:Construction,
  {915d7b07-a95c-4179-aadf-03ec0af39f77}, ! Handle
  ASHRAE 189.1-2009 ExtWall Mass ClimateZone alt-res 4, ! Name
  {2adbd7df-3611-490a-ac84-a4abeed2c6bb}, ! Surface Rendering Name
  {6e74310a-77c3-4b2d-af58-761d64335b74}, ! Layer 1
  {cf3d9a52-2551-45cd-9e2e-0241a444e529}, ! Layer 2
  {fd5d9fda-c289-4985-aead-7c88fa8ec93e}, ! Layer 3
  {2d70add8-0bea-4b7a-b7e1-fcfa5fdfb19b}; ! Layer 4

OS:Construction,
  {3625393a-72bf-4b61-b46b-e5550d188266}, ! Handle
  ASHRAE 189.1-2009 ExtWall Mass ClimateZone alt-res 5, ! Name
  {2a3efcf3-cafb-40ba-bcc5-6dad2f71a4e3}, ! Surface Rendering Name
  {6e74310a-77c3-4b2d-af58-761d64335b74}, ! Layer 1
  {cf3d9a52-2551-45cd-9e2e-0241a444e529}, ! Layer 2
  {bc3c27bb-bbce-4777-b3c1-62a12b7e6386}, ! Layer 3
  {2d70add8-0bea-4b7a-b7e1-fcfa5fdfb19b}; ! Layer 4

OS:Construction,
  {235d1fc9-8a79-4f13-9c51-e9171883eca8}, ! Handle
  ASHRAE 189.1-2009 ExtWall Mass ClimateZone alt-res 6, ! Name
  {b610ac4a-d13d-4333-b264-766a4eff07da}, ! Surface Rendering Name
  {6e74310a-77c3-4b2d-af58-761d64335b74}, ! Layer 1
  {cf3d9a52-2551-45cd-9e2e-0241a444e529}, ! Layer 2
  {da266e4f-21d6-4ed2-a82f-9fcc12997da1}, ! Layer 3
  {2d70add8-0bea-4b7a-b7e1-fcfa5fdfb19b}; ! Layer 4

OS:Construction,
  {8b4432e9-0575-4f5a-befa-44d0629701d0}, ! Handle
  ASHRAE 189.1-2009 ExtWall Mass ClimateZone alt-res 7, ! Name
  {dfbef219-4e28-408a-9e20-f691b037820c}, ! Surface Rendering Name
  {6e74310a-77c3-4b2d-af58-761d64335b74}, ! Layer 1
  {cf3d9a52-2551-45cd-9e2e-0241a444e529}, ! Layer 2
  {da266e4f-21d6-4ed2-a82f-9fcc12997da1}, ! Layer 3
  {2d70add8-0bea-4b7a-b7e1-fcfa5fdfb19b}; ! Layer 4

OS:Construction,
  {f49004e5-a859-409d-af27-8dd67f1dd71c}, ! Handle
  ASHRAE 189.1-2009 ExtWall Mass ClimateZone alt-res 8, ! Name
  {25bb9528-def6-4e2e-827d-e2f697a37fc7}, ! Surface Rendering Name
  {6e74310a-77c3-4b2d-af58-761d64335b74}, ! Layer 1
  {cf3d9a52-2551-45cd-9e2e-0241a444e529}, ! Layer 2
  {23feff96-3d7f-40bd-9f69-38e1fb4521a8}, ! Layer 3
  {2d70add8-0bea-4b7a-b7e1-fcfa5fdfb19b}; ! Layer 4

OS:Construction,
  {b7507d01-4f58-40b1-9f8f-d258055a01ce}, ! Handle
  ASHRAE 189.1-2009 ExtWall Metal ClimateZone 1-3, ! Name
  {4466f297-20e8-4043-8267-1bc3e698dd5c}, ! Surface Rendering Name
  {32efbce7-3ca8-4c43-bdcd-807c731a19c3}, ! Layer 1
  {ea67d7dd-483a-4c04-a7c2-47686563c1fc}, ! Layer 2
  {2d70add8-0bea-4b7a-b7e1-fcfa5fdfb19b}; ! Layer 3

OS:Construction,
  {be98df8e-9000-4f8c-b4a8-96755c8f8f7e}, ! Handle
  ASHRAE 189.1-2009 ExtWall Metal ClimateZone 4-8, ! Name
  {e9e4eafb-93f3-4410-bb48-4fff1842c3fe}, ! Surface Rendering Name
  {32efbce7-3ca8-4c43-bdcd-807c731a19c3}, ! Layer 1
  {c96a011a-6b64-47ed-955c-962b394dcec7}, ! Layer 2
  {2d70add8-0bea-4b7a-b7e1-fcfa5fdfb19b}; ! Layer 3

OS:Construction,
  {f0d17c81-829f-489d-9c84-023a28c1532a}, ! Handle
  ASHRAE 189.1-2009 ExtWall SteelFrame ClimateZone 1-3, ! Name
  {1792dd9a-ee92-401e-9752-621db4d5de26}, ! Surface Rendering Name
  {f6a58e42-8435-4315-a777-b265b21aa47b}, ! Layer 1
  {ad179c5e-c780-4132-b488-5a3bd7005422}, ! Layer 2
  {2d70add8-0bea-4b7a-b7e1-fcfa5fdfb19b}; ! Layer 3

OS:Construction,
  {25e26f6f-f98a-4a82-a2d6-cfbff0732fc8}, ! Handle
  ASHRAE 189.1-2009 ExtWall SteelFrame ClimateZone 4-8, ! Name
  {d4a16883-e770-461d-8fc7-4c6529d49e57}, ! Surface Rendering Name
  {f6a58e42-8435-4315-a777-b265b21aa47b}, ! Layer 1
  {e42980b8-292a-411c-a28a-2c7e88af1450}, ! Layer 2
  {2d70add8-0bea-4b7a-b7e1-fcfa5fdfb19b}; ! Layer 3

OS:Construction,
  {64d43b37-f488-4cd0-a53f-6a856cf071d7}, ! Handle
  ASHRAE 189.1-2009 ExtWall WoodFrame ClimateZone 1-4, ! Name
  {a474d07a-378e-4b4a-b7b6-46ad847134d3}, ! Surface Rendering Name
  {9f769924-dbd9-470a-ae97-702884089612}, ! Layer 1
  {608ccad6-7dc7-4c19-84a9-12763ada8676}, ! Layer 2
  {2d70add8-0bea-4b7a-b7e1-fcfa5fdfb19b}; ! Layer 3

OS:Construction,
  {5b4783d5-b4d3-4654-b39f-262b1d341ad6}, ! Handle
  ASHRAE 189.1-2009 ExtWall WoodFrame ClimateZone 5, ! Name
  {8f24cf12-11e5-477c-abc3-34b28dc85948}, ! Surface Rendering Name
  {9f769924-dbd9-470a-ae97-702884089612}, ! Layer 1
  {0a54b7ca-790b-4998-86fc-bebdfdc96bde}, ! Layer 2
  {2d70add8-0bea-4b7a-b7e1-fcfa5fdfb19b}; ! Layer 3

OS:Construction,
  {84c203bb-8222-4a9a-9b1c-6e0fc81f80c1}, ! Handle
  ASHRAE 189.1-2009 ExtWall WoodFrame ClimateZone 6-8, ! Name
  {3be66fab-5b93-4e94-ae3f-5001653886a8}, ! Surface Rendering Name
  {9f769924-dbd9-470a-ae97-702884089612}, ! Layer 1
  {480519ce-c88d-4eba-84ce-00b2b3bab07d}, ! Layer 2
  {2d70add8-0bea-4b7a-b7e1-fcfa5fdfb19b}; ! Layer 3

OS:Construction,
  {604d67f2-66a3-432e-9429-2f8d9666efc7}, ! Handle
  ASHRAE 189.1-2009 ExtWindow ClimateZone 1, ! Name
  {8e459a46-0e28-4b2b-99c9-1a2f1f89daa5}, ! Surface Rendering Name
  {113ec6a5-7099-4535-b5c0-c95bad41b190}; ! Layer 1

OS:Construction,
  {fd8d4924-a5ab-499f-9263-f3c5bd2adc1a}, ! Handle
  ASHRAE 189.1-2009 ExtWindow ClimateZone 2, ! Name
  {6390c6d4-0b21-4ee4-abf5-10d234106d0f}, ! Surface Rendering Name
  {96591356-9e4a-4176-a260-aac5f0dfa71d}; ! Layer 1

OS:Construction,
  {f99f7191-a9e5-48c9-aae1-24bde2099334}, ! Handle
  ASHRAE 189.1-2009 ExtWindow ClimateZone 3, ! Name
  {f45e2b8e-94b2-428e-b156-2400014573eb}, ! Surface Rendering Name
  {2cf2d78c-4ffc-4934-b663-f0e551bd21fa}; ! Layer 1

OS:Construction,
  {b06f0c3f-08e9-4b29-9660-c4339cb4cb31}, ! Handle
  ASHRAE 189.1-2009 ExtWindow ClimateZone 4-5, ! Name
  {ab66239e-3156-412b-b432-027d7b210a5f}, ! Surface Rendering Name
  {8b45ae35-8777-480a-b87f-7e6670372266}; ! Layer 1

OS:Construction,
  {a92ed434-973f-4485-9ca5-3832dd814af4}, ! Handle
  ASHRAE 189.1-2009 ExtWindow ClimateZone 6, ! Name
  {c628598e-9034-4ffe-8279-1e65090bfd05}, ! Surface Rendering Name
  {da42118a-543b-4cf5-9882-97ceffa2eae4}; ! Layer 1

OS:Construction,
  {97d5eb4d-4940-42a9-ab32-82476e6c1c46}, ! Handle
  ASHRAE 189.1-2009 ExtWindow ClimateZone 7-8, ! Name
  {9265f6bd-6927-43b4-b060-a14c09ca5ec2}, ! Surface Rendering Name
  {785522e3-a872-4d03-b9f4-34e1cb5842af}; ! Layer 1

OS:Construction,
  {eccb2aef-d2ae-45e2-8309-78184ac402d2}, ! Handle
  ASHRAE 189.1-2009 ExtWindow ClimateZone alt-res 4-5, ! Name
  {5859643f-eb32-4e65-9959-923d295e39a7}, ! Surface Rendering Name
  {da42118a-543b-4cf5-9882-97ceffa2eae4}; ! Layer 1

OS:Construction,
  {c76607d3-39c8-4269-b5b4-d7012b6af898}, ! Handle
  ASHRAE 90.1-2004 AtticFloor ClimateZone 1-5, ! Name
  {3e7d07d4-c93e-4362-bc14-b5449da81535}, ! Surface Rendering Name
  {2d70add8-0bea-4b7a-b7e1-fcfa5fdfb19b}, ! Layer 1
  {0d89f2ac-cd50-4fcb-8d71-89211336242c}, ! Layer 2
  {2d70add8-0bea-4b7a-b7e1-fcfa5fdfb19b}; ! Layer 3

OS:Construction,
  {acb6cae8-e1af-40c0-a998-58243c43c595}, ! Handle
  ASHRAE 90.1-2004 AtticFloor ClimateZone 6-8, ! Name
  {620ace93-394e-435f-a7f4-494c0e607d9c}, ! Surface Rendering Name
  {2d70add8-0bea-4b7a-b7e1-fcfa5fdfb19b}, ! Layer 1
  {40249499-4384-42ef-bcb7-ca26f896fe97}, ! Layer 2
  {2d70add8-0bea-4b7a-b7e1-fcfa5fdfb19b}; ! Layer 3

OS:Construction,
  {d7c9fc3b-86f5-41a1-9f89-d358c95c283e}, ! Handle
  ASHRAE 90.1-2004 ExtRoof IEAD ClimateZone 1-4, ! Name
  {476bcfae-cfcb-4b1a-9606-34b7e368d9a4}, ! Surface Rendering Name
  {c46af0f9-8a57-4441-bf78-e8b36fcdd251}, ! Layer 1
  {a30a29fb-0112-45b1-8463-4bdbf8355317}, ! Layer 2
  {56b3c1a3-eadb-4b0e-ae82-bce24e4272dc}; ! Layer 3

OS:Construction,
  {28e15196-b80f-4380-bf31-8b41490fe545}, ! Handle
  ASHRAE 90.1-2004 ExtRoof IEAD ClimateZone 5-6, ! Name
  {bd751e6e-9ccf-4493-98b1-056144d9ad11}, ! Surface Rendering Name
  {c46af0f9-8a57-4441-bf78-e8b36fcdd251}, ! Layer 1
  {9abc279a-cd64-4341-9de1-26df8de616ab}, ! Layer 2
  {56b3c1a3-eadb-4b0e-ae82-bce24e4272dc}; ! Layer 3

OS:Construction,
  {56227930-13c3-4aa5-ad16-69aefc33f085}, ! Handle
  ASHRAE 90.1-2004 ExtRoof IEAD ClimateZone 7, ! Name
  {8a45b261-fbf2-4889-a78d-f08e29a7d199}, ! Surface Rendering Name
  {c46af0f9-8a57-4441-bf78-e8b36fcdd251}, ! Layer 1
  {a30a29fb-0112-45b1-8463-4bdbf8355317}, ! Layer 2
  {56b3c1a3-eadb-4b0e-ae82-bce24e4272dc}; ! Layer 3

OS:Construction,
  {04038056-4d0a-4a05-b473-280916b9da93}, ! Handle
  ASHRAE 90.1-2004 ExtRoof IEAD ClimateZone 8, ! Name
  {21fddadf-b818-4762-ba7c-9c71a715d7ee}, ! Surface Rendering Name
  {c46af0f9-8a57-4441-bf78-e8b36fcdd251}, ! Layer 1
  {29b0394f-7b64-488b-a835-f43eff5db16d}, ! Layer 2
  {56b3c1a3-eadb-4b0e-ae82-bce24e4272dc}; ! Layer 3

OS:Construction,
  {ed6a1b5b-807c-4f7e-a6fc-d2f87300a2f2}, ! Handle
  ASHRAE 90.1-2004 ExtRoof Metal ClimateZone 1, ! Name
  {86f4197c-8e69-4ec7-a78d-60bc4e9f8495}, ! Surface Rendering Name
  {0183e4b7-1467-48c8-90ef-5b401643cda4}; ! Layer 1

OS:Construction,
  {9ab09b46-3188-41b3-9e31-ba1a8b1d42a3}, ! Handle
  ASHRAE 90.1-2004 ExtRoof Metal ClimateZone 2, ! Name
  {a7a1d597-2bb1-467a-a03d-48dfb103a6df}, ! Surface Rendering Name
  {0183e4b7-1467-48c8-90ef-5b401643cda4}, ! Layer 1
  {05d9ca9e-f7a4-4236-8f54-84d50838cbe6}; ! Layer 2

OS:Construction,
  {2be71ff8-257e-424d-a744-12109ed997a4}, ! Handle
  ASHRAE 90.1-2004 ExtRoof Metal ClimateZone 3-4, ! Name
  {d5246882-f308-4187-a5dd-7fcb97ce62b3}, ! Surface Rendering Name
  {0183e4b7-1467-48c8-90ef-5b401643cda4}, ! Layer 1
  {767a5c35-94e9-447f-89d3-2d83e6984cec}; ! Layer 2

OS:Construction,
  {95874e8c-731c-4f5f-87ca-98850c32f75c}, ! Handle
  ASHRAE 90.1-2004 ExtRoof Metal ClimateZone 5-6, ! Name
  {ea4d96db-ab1d-4d7a-a42e-584b27568545}, ! Surface Rendering Name
  {0183e4b7-1467-48c8-90ef-5b401643cda4}, ! Layer 1
  {d23110b1-5818-429d-a16b-136e56a48844}; ! Layer 2

OS:Construction,
  {773090c9-1ef5-4e92-9ed8-bd069d8934b0}, ! Handle
  ASHRAE 90.1-2004 ExtRoof Metal ClimateZone 7, ! Name
  {b2f478c8-233b-4bfb-abce-ffc7b6ed48b2}, ! Surface Rendering Name
  {0183e4b7-1467-48c8-90ef-5b401643cda4}, ! Layer 1
  {767a5c35-94e9-447f-89d3-2d83e6984cec}; ! Layer 2

OS:Construction,
  {fdf8c789-453a-4b3c-9126-cb5ee4e98a09}, ! Handle
  ASHRAE 90.1-2004 ExtRoof Metal ClimateZone 8, ! Name
  {34a3b098-e811-44d9-8970-892dff0ef092}, ! Surface Rendering Name
  {0183e4b7-1467-48c8-90ef-5b401643cda4}, ! Layer 1
  {b0801116-319c-44ae-81c7-75ca39487061}; ! Layer 2

OS:Construction,
  {2f2134e6-4635-415f-a0a4-06062cf58af2}, ! Handle
  ASHRAE 90.1-2004 ExtWall Mass ClimateZone 1-2, ! Name
  {339d99eb-0cb5-4529-ac36-a26c7ff650b5}, ! Surface Rendering Name
  {6e74310a-77c3-4b2d-af58-761d64335b74}, ! Layer 1
  {7069460e-b481-470c-9d5d-99ebf833018a}, ! Layer 2
  {2d70add8-0bea-4b7a-b7e1-fcfa5fdfb19b}; ! Layer 3

OS:Construction,
  {80e9fdec-ab6a-40ad-9fb7-4cd73e1dd087}, ! Handle
  ASHRAE 90.1-2004 ExtWall Mass ClimateZone 3-4, ! Name
  {0e6a6ef0-f1ce-4fee-b8e6-df25a7d72d5f}, ! Surface Rendering Name
  {6e74310a-77c3-4b2d-af58-761d64335b74}, ! Layer 1
  {7069460e-b481-470c-9d5d-99ebf833018a}, ! Layer 2
  {ac389f90-c869-47a5-b0a4-d55b57243059}, ! Layer 3
  {2d70add8-0bea-4b7a-b7e1-fcfa5fdfb19b}; ! Layer 4

OS:Construction,
  {8896fd7d-d8aa-47f2-8624-9ac10e0f3a36}, ! Handle
  ASHRAE 90.1-2004 ExtWall Mass ClimateZone 5, ! Name
  {847f3724-7f7b-43f1-a7fa-f0cfb1378a7e}, ! Surface Rendering Name
  {6e74310a-77c3-4b2d-af58-761d64335b74}, ! Layer 1
  {7069460e-b481-470c-9d5d-99ebf833018a}, ! Layer 2
  {8c66ef0e-029f-483c-aaab-62cf0aadc604}, ! Layer 3
  {2d70add8-0bea-4b7a-b7e1-fcfa5fdfb19b}; ! Layer 4

OS:Construction,
  {0ccf7cb3-4263-4701-85e9-f57a46ebb436}, ! Handle
  ASHRAE 90.1-2004 ExtWall Mass ClimateZone 6, ! Name
  {62c80f83-3224-44e0-be79-59210360f595}, ! Surface Rendering Name
  {6e74310a-77c3-4b2d-af58-761d64335b74}, ! Layer 1
  {7069460e-b481-470c-9d5d-99ebf833018a}, ! Layer 2
  {0ace5c46-a955-4602-9a56-0e5bb570fc4b}, ! Layer 3
  {2d70add8-0bea-4b7a-b7e1-fcfa5fdfb19b}; ! Layer 4

OS:Construction,
  {938d2433-713d-454d-a484-d34645219cef}, ! Handle
  ASHRAE 90.1-2004 ExtWall Mass ClimateZone 7, ! Name
  {b7b17f4c-11a6-4261-80a2-24846affc983}, ! Surface Rendering Name
  {6e74310a-77c3-4b2d-af58-761d64335b74}, ! Layer 1
  {7069460e-b481-470c-9d5d-99ebf833018a}, ! Layer 2
  {d8c442f3-e369-4c2c-a34a-2598b1e3a87f}, ! Layer 3
  {2d70add8-0bea-4b7a-b7e1-fcfa5fdfb19b}; ! Layer 4

OS:Construction,
  {226dca6a-d0e9-4fce-b583-5924fb1b062b}, ! Handle
  ASHRAE 90.1-2004 ExtWall Mass ClimateZone 8, ! Name
  {edf960de-a21d-4121-83b5-0689542c949a}, ! Surface Rendering Name
  {6e74310a-77c3-4b2d-af58-761d64335b74}, ! Layer 1
  {7069460e-b481-470c-9d5d-99ebf833018a}, ! Layer 2
  {22e09913-9501-4436-92e2-8386f227cda1}, ! Layer 3
  {2d70add8-0bea-4b7a-b7e1-fcfa5fdfb19b}; ! Layer 4

OS:Construction,
  {ffd722cc-0259-4aa0-bab7-39a8816ce833}, ! Handle
  ASHRAE 90.1-2004 ExtWall Mass ClimateZone alt-res 1-2, ! Name
  {10b090ac-dc81-40e0-aa39-3f2294f2770a}, ! Surface Rendering Name
  {6e74310a-77c3-4b2d-af58-761d64335b74}, ! Layer 1
  {7069460e-b481-470c-9d5d-99ebf833018a}, ! Layer 2
  {ac389f90-c869-47a5-b0a4-d55b57243059}, ! Layer 3
  {2d70add8-0bea-4b7a-b7e1-fcfa5fdfb19b}; ! Layer 4

OS:Construction,
  {a4537d0c-41d4-4216-82d9-d3f46c6619a5}, ! Handle
  ASHRAE 90.1-2004 ExtWall Mass ClimateZone alt-res 3, ! Name
  {19b3bf23-1707-44f1-86c4-e87e849fc906}, ! Surface Rendering Name
  {6e74310a-77c3-4b2d-af58-761d64335b74}, ! Layer 1
  {7069460e-b481-470c-9d5d-99ebf833018a}, ! Layer 2
  {8c66ef0e-029f-483c-aaab-62cf0aadc604}, ! Layer 3
  {2d70add8-0bea-4b7a-b7e1-fcfa5fdfb19b}; ! Layer 4

OS:Construction,
  {0a001647-8c74-467b-ac06-ee130c99dd91}, ! Handle
  ASHRAE 90.1-2004 ExtWall Mass ClimateZone alt-res 4, ! Name
  {5139354f-d039-428a-b51e-833a7226bfc6}, ! Surface Rendering Name
  {6e74310a-77c3-4b2d-af58-761d64335b74}, ! Layer 1
  {7069460e-b481-470c-9d5d-99ebf833018a}, ! Layer 2
  {0ace5c46-a955-4602-9a56-0e5bb570fc4b}, ! Layer 3
  {2d70add8-0bea-4b7a-b7e1-fcfa5fdfb19b}; ! Layer 4

OS:Construction,
  {7907a299-bd23-40c5-a755-46bb28cc487d}, ! Handle
  ASHRAE 90.1-2004 ExtWall Mass ClimateZone alt-res 5-6, ! Name
  {eb2fdc97-63f0-4acd-b3ac-519b259188eb}, ! Surface Rendering Name
  {6e74310a-77c3-4b2d-af58-761d64335b74}, ! Layer 1
  {7069460e-b481-470c-9d5d-99ebf833018a}, ! Layer 2
  {d8c442f3-e369-4c2c-a34a-2598b1e3a87f}, ! Layer 3
  {2d70add8-0bea-4b7a-b7e1-fcfa5fdfb19b}; ! Layer 4

OS:Construction,
  {7cc90953-8e8f-4bb5-abe2-ef52ab550ce9}, ! Handle
  ASHRAE 90.1-2004 ExtWall Mass ClimateZone alt-res 7, ! Name
  {5537d54a-67b7-4ed0-87d4-cb947ff8ba70}, ! Surface Rendering Name
  {6e74310a-77c3-4b2d-af58-761d64335b74}, ! Layer 1
  {7069460e-b481-470c-9d5d-99ebf833018a}, ! Layer 2
  {22e09913-9501-4436-92e2-8386f227cda1}, ! Layer 3
  {2d70add8-0bea-4b7a-b7e1-fcfa5fdfb19b}; ! Layer 4

OS:Construction,
  {1e575133-8017-4540-91f7-235a0223682d}, ! Handle
  ASHRAE 90.1-2004 ExtWall Mass ClimateZone alt-res 8, ! Name
  {a0a637c0-ebd5-483d-b086-2071d725642b}, ! Surface Rendering Name
  {6e74310a-77c3-4b2d-af58-761d64335b74}, ! Layer 1
  {7069460e-b481-470c-9d5d-99ebf833018a}, ! Layer 2
  {a6c3d8b6-d136-4e5e-ac70-3eaa49e24cac}, ! Layer 3
  {2d70add8-0bea-4b7a-b7e1-fcfa5fdfb19b}; ! Layer 4

OS:Construction,
  {661fabd8-cef2-4cd1-adf5-ec5ac046b0d0}, ! Handle
  ASHRAE 90.1-2004 ExtWall Metal ClimateZone 1, ! Name
  {67cdc446-64e3-4fe6-b8a8-5d7c916d6a90}, ! Surface Rendering Name
  {32efbce7-3ca8-4c43-bdcd-807c731a19c3}, ! Layer 1
  {2d70add8-0bea-4b7a-b7e1-fcfa5fdfb19b}; ! Layer 2

OS:Construction,
  {9fd1fd62-0879-4517-833a-ec78679fc498}, ! Handle
  ASHRAE 90.1-2004 ExtWall Metal ClimateZone 2-3, ! Name
  {d86d57eb-fe0c-42ff-9ae5-020a9cf94386}, ! Surface Rendering Name
  {32efbce7-3ca8-4c43-bdcd-807c731a19c3}, ! Layer 1
  {622ae32e-c3e2-471f-8f08-dce63f7bf1c3}, ! Layer 2
  {2d70add8-0bea-4b7a-b7e1-fcfa5fdfb19b}; ! Layer 3

OS:Construction,
  {549967c8-b4d9-4a2e-8c71-9746d324499e}, ! Handle
  ASHRAE 90.1-2004 ExtWall Metal ClimateZone 4, ! Name
  {9cb3cfe0-af6f-41fe-960c-d3071271ab59}, ! Surface Rendering Name
  {32efbce7-3ca8-4c43-bdcd-807c731a19c3}, ! Layer 1
  {22ce3f6f-ff65-4d6c-9d7f-69082746985e}, ! Layer 2
  {2d70add8-0bea-4b7a-b7e1-fcfa5fdfb19b}; ! Layer 3

OS:Construction,
  {3d7979a8-36f8-4055-828e-151936571f82}, ! Handle
  ASHRAE 90.1-2004 ExtWall Metal ClimateZone 5, ! Name
  {3b5fd8ce-2870-4839-9aef-5f0fbb64c440}, ! Surface Rendering Name
  {32efbce7-3ca8-4c43-bdcd-807c731a19c3}, ! Layer 1
  {3b3c1cec-04dc-4d70-87da-307ae46ec90d}, ! Layer 2
  {2d70add8-0bea-4b7a-b7e1-fcfa5fdfb19b}; ! Layer 3

OS:Construction,
  {5db87374-e19c-46a2-9f75-ca8417a73662}, ! Handle
  ASHRAE 90.1-2004 ExtWall Metal ClimateZone 6-8, ! Name
  {064d82a4-fa6a-48e9-93cf-377fb595e4c9}, ! Surface Rendering Name