
OS:Version,
  {a587602c-789e-4f67-89b8-1c8639df3086}, !- Handle
  1.2.3;                                  !- Version Identifier

OS:Construction,
  {c15fcdc4-7929-4190-aff5-de04f503547c}, !- Handle
  ASHRAE 189.1-2009 AtticFloor ClimateZone 1-8, !- Name
  ,                                       !- Surface Rendering Name
  {212d7d82-1ac0-4c8b-b954-e65b9b4f2421}, !- Layer 1
  {b92ca1ea-596c-4e09-923e-9795ff4b6cda}, !- Layer 2
  {212d7d82-1ac0-4c8b-b954-e65b9b4f2421}; !- Layer 3

OS:StandardsInformation:Construction,
  {608246a9-7fb3-4bf1-ae47-3f0bd7b74f49}, !- Handle
  {c15fcdc4-7929-4190-aff5-de04f503547c}, !- Construction Name
  AtticFloor,                             !- Intended Surface Type
  ASHRAE 189.1-2009;                      !- Standards Construction Type

OS:Material,
  {212d7d82-1ac0-4c8b-b954-e65b9b4f2421}, !- Handle
  1/2IN Gypsum,                           !- Name
  Smooth,                                 !- Roughness
  0.0127,                                 !- Thickness {m}
  0.16,                                   !- Conductivity {W/m-K}
  784.9,                                  !- Density {kg/m3}
  830.000000000001,                       !- Specific Heat {J/kg-K}
  0.9,                                    !- Thermal Absorptance
  0.92,                                   !- Solar Absorptance
  0.92;                                   !- Visible Absorptance

OS:Material,
  {b92ca1ea-596c-4e09-923e-9795ff4b6cda}, !- Handle
  AtticFloor Insulation,                  !- Name
  MediumRough,                            !- Roughness
  0.2379,                                 !- Thickness {m}
  0.049,                                  !- Conductivity {W/m-K}
  265,                                    !- Density {kg/m3}
  836.800000000001,                       !- Specific Heat {J/kg-K}
  0.9,                                    !- Thermal Absorptance
  0.7,                                    !- Solar Absorptance
  0.7;                                    !- Visible Absorptance

OS:Construction,
  {83acef1c-9791-4aee-8b6f-6fec41018f73}, !- Handle
  ASHRAE 189.1-2009 ExtRoof IEAD ClimateZone 1, !- Name
  ,                                       !- Surface Rendering Name
  {88885a9d-f39f-461d-a614-c174d1b9bc75}, !- Layer 1
  {0f47adbc-0a5a-44a2-8f97-af84a18a5d65}, !- Layer 2
  {a67ca2c7-60d4-4aac-981a-98278417941e}; !- Layer 3

OS:StandardsInformation:Construction,
  {eed082c4-713f-4c68-9483-1180853bd85d}, !- Handle
  {83acef1c-9791-4aee-8b6f-6fec41018f73}, !- Construction Name
  ExteriorRoof,                           !- Intended Surface Type
  ASHRAE 189.1-2009;                      !- Standards Construction Type

OS:Material,
  {88885a9d-f39f-461d-a614-c174d1b9bc75}, !- Handle
  Roof Membrane,                          !- Name
  VeryRough,                              !- Roughness
  0.0095,                                 !- Thickness {m}
  0.16,                                   !- Conductivity {W/m-K}
  1121.29,                                !- Density {kg/m3}
  1460,                                   !- Specific Heat {J/kg-K}
  0.9,                                    !- Thermal Absorptance
  0.7,                                    !- Solar Absorptance
  0.7;                                    !- Visible Absorptance

OS:Material,
  {0f47adbc-0a5a-44a2-8f97-af84a18a5d65}, !- Handle
  Roof Insulation [18],                   !- Name
  MediumRough,                            !- Roughness
  0.1693,                                 !- Thickness {m}
  0.049,                                  !- Conductivity {W/m-K}
  265,                                    !- Density {kg/m3}
  836.800000000001,                       !- Specific Heat {J/kg-K}
  0.9,                                    !- Thermal Absorptance
  0.7,                                    !- Solar Absorptance
  0.7;                                    !- Visible Absorptance

OS:Material,
  {a67ca2c7-60d4-4aac-981a-98278417941e}, !- Handle
  Metal Decking,                          !- Name
  MediumSmooth,                           !- Roughness
  0.0015,                                 !- Thickness {m}
  45.006,                                 !- Conductivity {W/m-K}
  7680,                                   !- Density {kg/m3}
  418.4,                                  !- Specific Heat {J/kg-K}
  0.9,                                    !- Thermal Absorptance
  0.7,                                    !- Solar Absorptance
  0.3;                                    !- Visible Absorptance

OS:Construction,
  {f679a674-caf3-42a9-b413-86174fef59c5}, !- Handle
  ASHRAE 189.1-2009 ExtRoof IEAD ClimateZone 2-5, !- Name
  ,                                       !- Surface Rendering Name
  {88885a9d-f39f-461d-a614-c174d1b9bc75}, !- Layer 1
  {4bb5661d-c0ea-47c4-9572-c4d96c28711a}, !- Layer 2
  {a67ca2c7-60d4-4aac-981a-98278417941e}; !- Layer 3

OS:StandardsInformation:Construction,
  {52383c2e-26a6-4755-87e2-d7c2e5e61991}, !- Handle
  {f679a674-caf3-42a9-b413-86174fef59c5}, !- Construction Name
  ExteriorRoof,                           !- Intended Surface Type
  ASHRAE 189.1-2009;                      !- Standards Construction Type

OS:Material,
  {4bb5661d-c0ea-47c4-9572-c4d96c28711a}, !- Handle
  Roof Insulation [21],                   !- Name
  MediumRough,                            !- Roughness
  0.2105,                                 !- Thickness {m}
  0.049,                                  !- Conductivity {W/m-K}
  265,                                    !- Density {kg/m3}
  836.800000000001,                       !- Specific Heat {J/kg-K}
  0.9,                                    !- Thermal Absorptance
  0.7,                                    !- Solar Absorptance
  0.7;                                    !- Visible Absorptance

OS:Construction,
  {3870d9a5-273a-4ca9-9e05-86cb4148c079}, !- Handle
  ASHRAE 189.1-2009 ExtRoof IEAD ClimateZone 6, !- Name
  ,                                       !- Surface Rendering Name
  {88885a9d-f39f-461d-a614-c174d1b9bc75}, !- Layer 1
  {23338d67-252f-4b22-8acd-64b602232458}, !- Layer 2
  {a67ca2c7-60d4-4aac-981a-98278417941e}; !- Layer 3

OS:StandardsInformation:Construction,
  {6051be2c-9a25-49b5-a158-21d723ca7af8}, !- Handle
  {3870d9a5-273a-4ca9-9e05-86cb4148c079}, !- Construction Name
  ExteriorRoof,                           !- Intended Surface Type
  ASHRAE 189.1-2009;                      !- Standards Construction Type

OS:Material,
  {23338d67-252f-4b22-8acd-64b602232458}, !- Handle
  Roof Insulation [24],                   !- Name
  MediumRough,                            !- Roughness
  0.260100000000001,                      !- Thickness {m}
  0.049,                                  !- Conductivity {W/m-K}
  265,                                    !- Density {kg/m3}
  836.800000000001,                       !- Specific Heat {J/kg-K}
  0.9,                                    !- Thermal Absorptance
  0.7,                                    !- Solar Absorptance
  0.7;                                    !- Visible Absorptance

OS:Construction,
  {b77b3bda-5fe9-41e3-8657-962106b98326}, !- Handle
  ASHRAE 189.1-2009 ExtRoof IEAD ClimateZone 7-8, !- Name
  ,                                       !- Surface Rendering Name
  {88885a9d-f39f-461d-a614-c174d1b9bc75}, !- Layer 1
  {8b26fc0f-6bca-4369-bf54-5441310543de}, !- Layer 2
  {a67ca2c7-60d4-4aac-981a-98278417941e}; !- Layer 3

OS:StandardsInformation:Construction,
  {1f697352-a1c9-4581-a52a-fac7d75ea6cb}, !- Handle
  {b77b3bda-5fe9-41e3-8657-962106b98326}, !- Construction Name
  ExteriorRoof,                           !- Intended Surface Type
  ASHRAE 189.1-2009;                      !- Standards Construction Type

OS:Material,
  {8b26fc0f-6bca-4369-bf54-5441310543de}, !- Handle
  Roof Insulation [26],                   !- Name
  MediumRough,                            !- Roughness
  0.2941,                                 !- Thickness {m}
  0.049,                                  !- Conductivity {W/m-K}
  265,                                    !- Density {kg/m3}
  836.800000000001,                       !- Specific Heat {J/kg-K}
  0.9,                                    !- Thermal Absorptance
  0.7,                                    !- Solar Absorptance
  0.7;                                    !- Visible Absorptance

OS:Construction,
  {d11359d5-4da6-4047-9ac9-879370f81bd6}, !- Handle
  ASHRAE 189.1-2009 ExtRoof Metal ClimateZone 1, !- Name
  ,                                       !- Surface Rendering Name
  {4874786d-fed5-43e9-815d-893bc041f77c}, !- Layer 1
  {e10e5d52-be47-40ec-a533-46329225883e}; !- Layer 2

OS:StandardsInformation:Construction,
  {375e9381-ab35-4323-9367-e375b70d5837}, !- Handle
  {d11359d5-4da6-4047-9ac9-879370f81bd6}, !- Construction Name
  ExteriorRoof,                           !- Intended Surface Type
  ASHRAE 189.1-2009;                      !- Standards Construction Type

OS:Material,
  {4874786d-fed5-43e9-815d-893bc041f77c}, !- Handle
  Metal Roofing,                          !- Name
  MediumSmooth,                           !- Roughness
  0.0015,                                 !- Thickness {m}
  45.006,                                 !- Conductivity {W/m-K}
  7680,                                   !- Density {kg/m3}
  418.4,                                  !- Specific Heat {J/kg-K}
  0.9,                                    !- Thermal Absorptance
  0.3,                                    !- Solar Absorptance
  0.3;                                    !- Visible Absorptance

OS:Material,
  {e10e5d52-be47-40ec-a533-46329225883e}, !- Handle
  Roof Insulation [19],                   !- Name
  MediumRough,                            !- Roughness
  0.1868,                                 !- Thickness {m}
  0.049,                                  !- Conductivity {W/m-K}
  265,                                    !- Density {kg/m3}
  836.800000000001,                       !- Specific Heat {J/kg-K}
  0.9,                                    !- Thermal Absorptance
  0.7,                                    !- Solar Absorptance
  0.7;                                    !- Visible Absorptance

OS:Construction,
  {bdb42316-c4ea-4d8c-bef5-59ff3e7e0edc}, !- Handle
  ASHRAE 189.1-2009 ExtRoof Metal ClimateZone 2-5, !- Name
  ,                                       !- Surface Rendering Name
  {4874786d-fed5-43e9-815d-893bc041f77c}, !- Layer 1
  {1b212c69-568f-4921-9c04-c824941391dd}; !- Layer 2

OS:StandardsInformation:Construction,
  {899ab8e1-43a7-47a5-bcc9-d4ad8d255bd9}, !- Handle
  {bdb42316-c4ea-4d8c-bef5-59ff3e7e0edc}, !- Construction Name
  ExteriorRoof,                           !- Intended Surface Type
  ASHRAE 189.1-2009;                      !- Standards Construction Type

OS:Material,
  {1b212c69-568f-4921-9c04-c824941391dd}, !- Handle
  Roof Insulation [22],                   !- Name
  MediumRough,                            !- Roughness
  0.2358,                                 !- Thickness {m}
  0.049,                                  !- Conductivity {W/m-K}
  265,                                    !- Density {kg/m3}
  836.800000000001,                       !- Specific Heat {J/kg-K}
  0.9,                                    !- Thermal Absorptance
  0.7,                                    !- Solar Absorptance
  0.7;                                    !- Visible Absorptance

OS:Construction,
  {68fec72b-c023-4aec-8664-06fb461f2b86}, !- Handle
  ASHRAE 189.1-2009 ExtRoof Metal ClimateZone 6, !- Name
  ,                                       !- Surface Rendering Name
  {4874786d-fed5-43e9-815d-893bc041f77c}, !- Layer 1
  {c16da6ea-e750-4e1c-b62b-70bed31211c9}; !- Layer 2

OS:StandardsInformation:Construction,
  {388786c1-c054-430c-95dd-8b77e5a34592}, !- Handle
  {68fec72b-c023-4aec-8664-06fb461f2b86}, !- Construction Name
  ExteriorRoof,                           !- Intended Surface Type
  ASHRAE 189.1-2009;                      !- Standards Construction Type

OS:Material,
  {c16da6ea-e750-4e1c-b62b-70bed31211c9}, !- Handle
  Roof Insulation [25],                   !- Name
  MediumRough,                            !- Roughness
  0.263,                                  !- Thickness {m}
  0.049,                                  !- Conductivity {W/m-K}
  265,                                    !- Density {kg/m3}
  836.800000000001,                       !- Specific Heat {J/kg-K}
  0.9,                                    !- Thermal Absorptance
  0.7,                                    !- Solar Absorptance
  0.7;                                    !- Visible Absorptance

OS:Construction,
  {97a4ee47-5b4f-4654-b54a-67bf869e0370}, !- Handle
  ASHRAE 189.1-2009 ExtRoof Metal ClimateZone 7-8, !- Name
  ,                                       !- Surface Rendering Name
  {4874786d-fed5-43e9-815d-893bc041f77c}, !- Layer 1
  {e45a231a-65d8-46fb-9484-ebc407148f3e}; !- Layer 2

OS:StandardsInformation:Construction,
  {de50ff89-c1ea-4592-959e-e67f200191fb}, !- Handle
  {97a4ee47-5b4f-4654-b54a-67bf869e0370}, !- Construction Name
  ExteriorRoof,                           !- Intended Surface Type
  ASHRAE 189.1-2009;                      !- Standards Construction Type

OS:Material,
  {e45a231a-65d8-46fb-9484-ebc407148f3e}, !- Handle
  Roof Insulation [27],                   !- Name
  MediumRough,                            !- Roughness
  0.297000000000001,                      !- Thickness {m}
  0.049,                                  !- Conductivity {W/m-K}
  265,                                    !- Density {kg/m3}
  836.800000000001,                       !- Specific Heat {J/kg-K}
  0.9,                                    !- Thermal Absorptance
  0.7,                                    !- Solar Absorptance
  0.7;                                    !- Visible Absorptance

OS:Construction,
  {e8e92564-292f-4623-93eb-9bd81f2dbd62}, !- Handle
  ASHRAE 189.1-2009 ExtWall Mass ClimateZone 1, !- Name
  ,                                       !- Surface Rendering Name
  {6b508008-5f79-4766-bfde-125c9bc78259}, !- Layer 1
  {fd6a603d-ff9b-422e-9e3c-4296e8557053}, !- Layer 2
  {0bc8c5bb-9ba8-4892-ad5d-c65d046d0d9d}, !- Layer 3
  {212d7d82-1ac0-4c8b-b954-e65b9b4f2421}; !- Layer 4

OS:StandardsInformation:Construction,
  {f51e325c-cd57-4d41-ae40-5f030aa9b88f}, !- Handle
  {e8e92564-292f-4623-93eb-9bd81f2dbd62}, !- Construction Name
  ExteriorWall,                           !- Intended Surface Type
  ASHRAE 189.1-2009;                      !- Standards Construction Type

OS:Material,
  {6b508008-5f79-4766-bfde-125c9bc78259}, !- Handle
  1IN Stucco,                             !- Name
  Smooth,                                 !- Roughness
  0.0253,                                 !- Thickness {m}
  0.691799999999999,                      !- Conductivity {W/m-K}
  1858,                                   !- Density {kg/m3}
  836.999999999999,                       !- Specific Heat {J/kg-K}
  0.9,                                    !- Thermal Absorptance
  0.92,                                   !- Solar Absorptance
  0.92;                                   !- Visible Absorptance

OS:Material,
  {fd6a603d-ff9b-422e-9e3c-4296e8557053}, !- Handle
  8IN Concrete HW,                        !- Name
  MediumRough,                            !- Roughness
  0.2033,                                 !- Thickness {m}
  1.72959999999999,                       !- Conductivity {W/m-K}
  2242.99999999999,                       !- Density {kg/m3}
  836.999999999999,                       !- Specific Heat {J/kg-K}
  0.9,                                    !- Thermal Absorptance
  0.65,                                   !- Solar Absorptance
  0.65;                                   !- Visible Absorptance

OS:Material,
  {0bc8c5bb-9ba8-4892-ad5d-c65d046d0d9d}, !- Handle
  Wall Insulation [31],                   !- Name
  MediumRough,                            !- Roughness
  0.0337000000000001,                     !- Thickness {m}
  0.0432,                                 !- Conductivity {W/m-K}
  91,                                     !- Density {kg/m3}
  836.999999999999,                       !- Specific Heat {J/kg-K}
  0.9,                                    !- Thermal Absorptance
  0.5,                                    !- Solar Absorptance
  0.5;                                    !- Visible Absorptance

OS:Construction,
  {6b9162bb-ea9f-4df7-81bb-32fd917ed83b}, !- Handle
  ASHRAE 189.1-2009 ExtWall Mass ClimateZone 2, !- Name
  ,                                       !- Surface Rendering Name
  {6b508008-5f79-4766-bfde-125c9bc78259}, !- Layer 1
  {fd6a603d-ff9b-422e-9e3c-4296e8557053}, !- Layer 2
  {8eeed531-8c6d-4d61-8a91-89e3d97c6360}, !- Layer 3
  {212d7d82-1ac0-4c8b-b954-e65b9b4f2421}; !- Layer 4

OS:StandardsInformation:Construction,
  {75cd9d7b-3fbc-4ce9-b7a5-ce50b9fa3813}, !- Handle
  {6b9162bb-ea9f-4df7-81bb-32fd917ed83b}, !- Construction Name
  ExteriorWall,                           !- Intended Surface Type
  ASHRAE 189.1-2009;                      !- Standards Construction Type

OS:Material,
  {8eeed531-8c6d-4d61-8a91-89e3d97c6360}, !- Handle
  Wall Insulation [35],                   !- Name
  MediumRough,                            !- Roughness
  0.0452,                                 !- Thickness {m}
  0.0432,                                 !- Conductivity {W/m-K}
  91,                                     !- Density {kg/m3}
  836.999999999999,                       !- Specific Heat {J/kg-K}
  0.9,                                    !- Thermal Absorptance
  0.5,                                    !- Solar Absorptance
  0.5;                                    !- Visible Absorptance

OS:Construction,
  {b8182c24-54ba-4316-9ce9-982343d337f5}, !- Handle
  ASHRAE 189.1-2009 ExtWall Mass ClimateZone 3, !- Name
  ,                                       !- Surface Rendering Name
  {6b508008-5f79-4766-bfde-125c9bc78259}, !- Layer 1
  {fd6a603d-ff9b-422e-9e3c-4296e8557053}, !- Layer 2
  {56b51552-15e3-4c58-a8e2-55f3b022a6a8}, !- Layer 3
  {212d7d82-1ac0-4c8b-b954-e65b9b4f2421}; !- Layer 4

OS:StandardsInformation:Construction,
  {68ed0492-fda6-46f8-90fe-dbbd351d4282}, !- Handle
  {b8182c24-54ba-4316-9ce9-982343d337f5}, !- Construction Name
  ExteriorWall,                           !- Intended Surface Type
  ASHRAE 189.1-2009;                      !- Standards Construction Type

OS:Material,
  {56b51552-15e3-4c58-a8e2-55f3b022a6a8}, !- Handle
  Wall Insulation [36],                   !- Name
  MediumRough,                            !- Roughness
  0.0565999999999999,                     !- Thickness {m}
  0.0432,                                 !- Conductivity {W/m-K}
  91,                                     !- Density {kg/m3}
  836.999999999999,                       !- Specific Heat {J/kg-K}
  0.9,                                    !- Thermal Absorptance
  0.5,                                    !- Solar Absorptance
  0.5;                                    !- Visible Absorptance

OS:Construction,
  {6ca14a1c-b340-4ccf-a4d7-aebaedfb7825}, !- Handle
  ASHRAE 189.1-2009 ExtWall Mass ClimateZone 4, !- Name
  ,                                       !- Surface Rendering Name
  {6b508008-5f79-4766-bfde-125c9bc78259}, !- Layer 1
  {fd6a603d-ff9b-422e-9e3c-4296e8557053}, !- Layer 2
  {ea8043d8-e42d-4fd9-be39-7a4ebbe53e1c}, !- Layer 3
  {212d7d82-1ac0-4c8b-b954-e65b9b4f2421}; !- Layer 4

OS:StandardsInformation:Construction,
  {9f8fd5a4-2eb2-47bb-8e3f-69d545b3dd7b}, !- Handle
  {6ca14a1c-b340-4ccf-a4d7-aebaedfb7825}, !- Construction Name
  ExteriorWall,                           !- Intended Surface Type
  ASHRAE 189.1-2009;                      !- Standards Construction Type

OS:Material,
  {ea8043d8-e42d-4fd9-be39-7a4ebbe53e1c}, !- Handle
  Wall Insulation [37],                   !- Name
  MediumRough,                            !- Roughness
  0.0680999999999999,                     !- Thickness {m}
  0.0432,                                 !- Conductivity {W/m-K}
  91,                                     !- Density {kg/m3}
  836.999999999999,                       !- Specific Heat {J/kg-K}
  0.9,                                    !- Thermal Absorptance
  0.5,                                    !- Solar Absorptance
  0.5;                                    !- Visible Absorptance

OS:Construction,
  {9d16310a-5562-4fcc-9306-0e33e47a9919}, !- Handle
  ASHRAE 189.1-2009 ExtWall Mass ClimateZone 5, !- Name
  ,                                       !- Surface Rendering Name
  {6b508008-5f79-4766-bfde-125c9bc78259}, !- Layer 1
  {fd6a603d-ff9b-422e-9e3c-4296e8557053}, !- Layer 2
  {2ffcf12c-3ffc-4a67-b274-09f67267ec96}, !- Layer 3
  {212d7d82-1ac0-4c8b-b954-e65b9b4f2421}; !- Layer 4

OS:StandardsInformation:Construction,
  {adfa76a1-d25d-4049-bb2c-72e6dd43f5a3}, !- Handle
  {9d16310a-5562-4fcc-9306-0e33e47a9919}, !- Construction Name
  ExteriorWall,                           !- Intended Surface Type
  ASHRAE 189.1-2009;                      !- Standards Construction Type

OS:Material,
  {2ffcf12c-3ffc-4a67-b274-09f67267ec96}, !- Handle
  Wall Insulation [40],                   !- Name
  MediumRough,                            !- Roughness
  0.0793999999999999,                     !- Thickness {m}
  0.0432,                                 !- Conductivity {W/m-K}
  91,                                     !- Density {kg/m3}
  836.999999999999,                       !- Specific Heat {J/kg-K}
  0.9,                                    !- Thermal Absorptance
  0.5,                                    !- Solar Absorptance
  0.5;                                    !- Visible Absorptance

OS:Construction,
  {21026376-4055-4026-91c4-13fa71a3abd8}, !- Handle
  ASHRAE 189.1-2009 ExtWall Mass ClimateZone 6, !- Name
  ,                                       !- Surface Rendering Name
  {6b508008-5f79-4766-bfde-125c9bc78259}, !- Layer 1
  {fd6a603d-ff9b-422e-9e3c-4296e8557053}, !- Layer 2
  {cf6a6825-9ddc-4b52-b5cc-55281aee161e}, !- Layer 3
  {212d7d82-1ac0-4c8b-b954-e65b9b4f2421}; !- Layer 4

OS:StandardsInformation:Construction,
  {d1b1ee25-6409-4992-8572-091a90106f9b}, !- Handle
  {21026376-4055-4026-91c4-13fa71a3abd8}, !- Construction Name
  ExteriorWall,                           !- Intended Surface Type
  ASHRAE 189.1-2009;                      !- Standards Construction Type

OS:Material,
  {cf6a6825-9ddc-4b52-b5cc-55281aee161e}, !- Handle
  Wall Insulation [42],                   !- Name
  MediumRough,                            !- Roughness
  0.0913999999999999,                     !- Thickness {m}
  0.0432,                                 !- Conductivity {W/m-K}
  91,                                     !- Density {kg/m3}
  836.999999999999,                       !- Specific Heat {J/kg-K}
  0.9,                                    !- Thermal Absorptance
  0.5,                                    !- Solar Absorptance
  0.5;                                    !- Visible Absorptance

OS:Construction,
  {eeb3a935-273c-4291-9229-12c2b3e603a9}, !- Handle
  ASHRAE 189.1-2009 ExtWall Mass ClimateZone 7-8, !- Name
  ,                                       !- Surface Rendering Name
  {6b508008-5f79-4766-bfde-125c9bc78259}, !- Layer 1
  {fd6a603d-ff9b-422e-9e3c-4296e8557053}, !- Layer 2
  {11e1c63a-8b60-403f-94d2-ed19b99adfbe}, !- Layer 3
  {212d7d82-1ac0-4c8b-b954-e65b9b4f2421}; !- Layer 4

OS:StandardsInformation:Construction,
  {f667b930-f6ec-44ee-833f-8c72c299b4de}, !- Handle
  {eeb3a935-273c-4291-9229-12c2b3e603a9}, !- Construction Name
  ExteriorWall,                           !- Intended Surface Type
  ASHRAE 189.1-2009;                      !- Standards Construction Type

OS:Material,
  {11e1c63a-8b60-403f-94d2-ed19b99adfbe}, !- Handle
  Wall Insulation [44],                   !- Name
  MediumRough,                            !- Roughness
  0.1104,                                 !- Thickness {m}
  0.0432,                                 !- Conductivity {W/m-K}
  91,                                     !- Density {kg/m3}
  836.999999999999,                       !- Specific Heat {J/kg-K}
  0.9,                                    !- Thermal Absorptance
  0.5,                                    !- Solar Absorptance
  0.5;                                    !- Visible Absorptance

OS:Construction,
  {76a4931f-0da7-4182-818d-87036cacffe0}, !- Handle
  ASHRAE 189.1-2009 ExtWall Mass ClimateZone alt-res 1, !- Name
  ,                                       !- Surface Rendering Name
  {6b508008-5f79-4766-bfde-125c9bc78259}, !- Layer 1
  {fd6a603d-ff9b-422e-9e3c-4296e8557053}, !- Layer 2
  {8eeed531-8c6d-4d61-8a91-89e3d97c6360}, !- Layer 3
  {212d7d82-1ac0-4c8b-b954-e65b9b4f2421}; !- Layer 4

OS:StandardsInformation:Construction,
  {186e0e28-ea19-45b9-8e9c-ad9989325fb7}, !- Handle
  {76a4931f-0da7-4182-818d-87036cacffe0}, !- Construction Name
  ExteriorWall,                           !- Intended Surface Type
  ASHRAE 189.1-2009;                      !- Standards Construction Type

OS:Construction,
  {42b27625-663e-4d4c-8fed-a37a3028bffc}, !- Handle
  ASHRAE 189.1-2009 ExtWall Mass ClimateZone alt-res 2, !- Name
  ,                                       !- Surface Rendering Name
  {6b508008-5f79-4766-bfde-125c9bc78259}, !- Layer 1
  {fd6a603d-ff9b-422e-9e3c-4296e8557053}, !- Layer 2
  {56b51552-15e3-4c58-a8e2-55f3b022a6a8}, !- Layer 3
  {212d7d82-1ac0-4c8b-b954-e65b9b4f2421}; !- Layer 4

OS:StandardsInformation:Construction,
  {59fb59c6-ee37-485c-99e2-a3b378ab0232}, !- Handle
  {42b27625-663e-4d4c-8fed-a37a3028bffc}, !- Construction Name
  ExteriorWall,                           !- Intended Surface Type
  ASHRAE 189.1-2009;                      !- Standards Construction Type

OS:Construction,
  {9fcb52d3-688d-41f3-9696-0df6760a2fe4}, !- Handle
  ASHRAE 189.1-2009 ExtWall Mass ClimateZone alt-res 3, !- Name
  ,                                       !- Surface Rendering Name
  {6b508008-5f79-4766-bfde-125c9bc78259}, !- Layer 1
  {fd6a603d-ff9b-422e-9e3c-4296e8557053}, !- Layer 2
  {ea8043d8-e42d-4fd9-be39-7a4ebbe53e1c}, !- Layer 3
  {212d7d82-1ac0-4c8b-b954-e65b9b4f2421}; !- Layer 4

OS:StandardsInformation:Construction,
  {65b1b710-07e1-47b9-85ce-ac59a43e7555}, !- Handle
  {9fcb52d3-688d-41f3-9696-0df6760a2fe4}, !- Construction Name
  ExteriorWall,                           !- Intended Surface Type
  ASHRAE 189.1-2009;                      !- Standards Construction Type

OS:Construction,
  {5f90cdd0-5b0e-4889-abb0-519b9e6529e3}, !- Handle
  ASHRAE 189.1-2009 ExtWall Mass ClimateZone alt-res 4, !- Name
  ,                                       !- Surface Rendering Name
  {6b508008-5f79-4766-bfde-125c9bc78259}, !- Layer 1
  {fd6a603d-ff9b-422e-9e3c-4296e8557053}, !- Layer 2
  {2ffcf12c-3ffc-4a67-b274-09f67267ec96}, !- Layer 3
  {212d7d82-1ac0-4c8b-b954-e65b9b4f2421}; !- Layer 4

OS:StandardsInformation:Construction,
  {7baca91d-1406-4c2c-b9fb-0756bec5ae5b}, !- Handle
  {5f90cdd0-5b0e-4889-abb0-519b9e6529e3}, !- Construction Name
  ExteriorWall,                           !- Intended Surface Type
  ASHRAE 189.1-2009;                      !- Standards Construction Type

OS:Construction,
  {03b55808-11dd-49b4-a943-bfa4d5f6737e}, !- Handle
  ASHRAE 189.1-2009 ExtWall Mass ClimateZone alt-res 5, !- Name
  ,                                       !- Surface Rendering Name
  {6b508008-5f79-4766-bfde-125c9bc78259}, !- Layer 1
  {fd6a603d-ff9b-422e-9e3c-4296e8557053}, !- Layer 2
  {cf6a6825-9ddc-4b52-b5cc-55281aee161e}, !- Layer 3
  {212d7d82-1ac0-4c8b-b954-e65b9b4f2421}; !- Layer 4

OS:StandardsInformation:Construction,
  {c5474d8f-d319-4da9-8310-e5562cd53223}, !- Handle
  {03b55808-11dd-49b4-a943-bfa4d5f6737e}, !- Construction Name
  ExteriorWall,                           !- Intended Surface Type
  ASHRAE 189.1-2009;                      !- Standards Construction Type

OS:Construction,
  {5bed6477-fc0c-4f1c-879b-aa86c87842d7}, !- Handle
  ASHRAE 189.1-2009 ExtWall Mass ClimateZone alt-res 6, !- Name
  ,                                       !- Surface Rendering Name
  {6b508008-5f79-4766-bfde-125c9bc78259}, !- Layer 1
  {fd6a603d-ff9b-422e-9e3c-4296e8557053}, !- Layer 2
  {11e1c63a-8b60-403f-94d2-ed19b99adfbe}, !- Layer 3
  {212d7d82-1ac0-4c8b-b954-e65b9b4f2421}; !- Layer 4

OS:StandardsInformation:Construction,
  {bb083d40-b6d7-459b-bb3e-0c0cfa42982f}, !- Handle
  {5bed6477-fc0c-4f1c-879b-aa86c87842d7}, !- Construction Name
  ExteriorWall,                           !- Intended Surface Type
  ASHRAE 189.1-2009;                      !- Standards Construction Type

OS:Construction,
  {670d3817-17eb-443d-b685-e82dd6e85d41}, !- Handle
  ASHRAE 189.1-2009 ExtWall Mass ClimateZone alt-res 7, !- Name
  ,                                       !- Surface Rendering Name
  {6b508008-5f79-4766-bfde-125c9bc78259}, !- Layer 1
  {fd6a603d-ff9b-422e-9e3c-4296e8557053}, !- Layer 2
  {11e1c63a-8b60-403f-94d2-ed19b99adfbe}, !- Layer 3
  {212d7d82-1ac0-4c8b-b954-e65b9b4f2421}; !- Layer 4

OS:StandardsInformation:Construction,
  {1fde2350-a9f1-429f-92fa-825fab90acdc}, !- Handle
  {670d3817-17eb-443d-b685-e82dd6e85d41}, !- Construction Name
  ExteriorWall,                           !- Intended Surface Type
  ASHRAE 189.1-2009;                      !- Standards Construction Type

OS:Construction,
  {a108f3ab-435a-41f1-a14b-0db9ef5ac724}, !- Handle
  ASHRAE 189.1-2009 ExtWall Mass ClimateZone alt-res 8, !- Name