
OS:Version,
  {1b0c97a4-8559-4f5b-bb0a-2e9635662a91}, !- Handle
  1.3.0;                                  !- Version Identifier

OS:Construction,
  {a00b9361-066c-4e4f-b563-d38414d1f877}, !- Handle
  ASHRAE 189.1-2009 AtticFloor ClimateZone 1-8, !- Name
  ,                                       !- Surface Rendering Name
  {aed99863-381c-4ed9-9cf1-c7dab08f9c82}, !- Layer 1
  {8afb452b-32d8-474a-9f1a-1810474c0b34}, !- Layer 2
  {aed99863-381c-4ed9-9cf1-c7dab08f9c82}; !- Layer 3

OS:StandardsInformation:Construction,
  {6a79b04d-8499-4968-8c49-5f875a495f3f}, !- Handle
  {a00b9361-066c-4e4f-b563-d38414d1f877}, !- Construction Name
  AtticFloor,                             !- Intended Surface Type
  WoodFramed;                             !- Standards Construction Type

OS:Material,
  {aed99863-381c-4ed9-9cf1-c7dab08f9c82}, !- Handle
  1/2IN Gypsum,                           !- Name
  Smooth,                                 !- Roughness
  0.0127,                                 !- Thickness {m}
  0.16,                                   !- Conductivity {W/m-K}
  784.9,                                  !- Density {kg/m3}
  830.000000000001,                       !- Specific Heat {J/kg-K}
  0.9,                                    !- Thermal Absorptance
  0.92,                                   !- Solar Absorptance
  0.92;                                   !- Visible Absorptance

OS:Material,
  {8afb452b-32d8-474a-9f1a-1810474c0b34}, !- Handle
  AtticFloor Insulation,                  !- Name
  MediumRough,                            !- Roughness
  0.2379,                                 !- Thickness {m}
  0.049,                                  !- Conductivity {W/m-K}
  265,                                    !- Density {kg/m3}
  836.800000000001,                       !- Specific Heat {J/kg-K}
  0.9,                                    !- Thermal Absorptance
  0.7,                                    !- Solar Absorptance
  0.7;                                    !- Visible Absorptance

OS:Construction,
  {c1148c53-c555-4c3c-a73a-b207b0047c4e}, !- Handle
  ASHRAE 189.1-2009 ExtRoof IEAD ClimateZone 1, !- Name
  ,                                       !- Surface Rendering Name
  {45680edd-b808-4940-8159-50cdf260ba42}, !- Layer 1
  {aace475b-2a4e-4bf3-8e6d-dea8c0c83384}, !- Layer 2
  {66ab96cd-e05a-4e4e-9a2f-2aae23c528c8}; !- Layer 3

OS:StandardsInformation:Construction,
  {e6016bfb-62d7-47dc-9e80-4c85f27227e8}, !- Handle
  {c1148c53-c555-4c3c-a73a-b207b0047c4e}, !- Construction Name
  ExteriorRoof,                           !- Intended Surface Type
  IEAD;                                   !- Standards Construction Type

OS:Material,
  {45680edd-b808-4940-8159-50cdf260ba42}, !- Handle
  Roof Membrane,                          !- Name
  VeryRough,                              !- Roughness
  0.0095,                                 !- Thickness {m}
  0.16,                                   !- Conductivity {W/m-K}
  1121.29,                                !- Density {kg/m3}
  1460,                                   !- Specific Heat {J/kg-K}
  0.9,                                    !- Thermal Absorptance
  0.7,                                    !- Solar Absorptance
  0.7;                                    !- Visible Absorptance

OS:Material,
  {aace475b-2a4e-4bf3-8e6d-dea8c0c83384}, !- Handle
  Roof Insulation [18],                   !- Name
  MediumRough,                            !- Roughness
  0.1693,                                 !- Thickness {m}
  0.049,                                  !- Conductivity {W/m-K}
  265,                                    !- Density {kg/m3}
  836.800000000001,                       !- Specific Heat {J/kg-K}
  0.9,                                    !- Thermal Absorptance
  0.7,                                    !- Solar Absorptance
  0.7;                                    !- Visible Absorptance

OS:Material,
  {66ab96cd-e05a-4e4e-9a2f-2aae23c528c8}, !- Handle
  Metal Decking,                          !- Name
  MediumSmooth,                           !- Roughness
  0.0015,                                 !- Thickness {m}
  45.006,                                 !- Conductivity {W/m-K}
  7680,                                   !- Density {kg/m3}
  418.4,                                  !- Specific Heat {J/kg-K}
  0.9,                                    !- Thermal Absorptance
  0.7,                                    !- Solar Absorptance
  0.3;                                    !- Visible Absorptance

OS:Construction,
  {87eb0930-27fe-43a5-9686-6be4aab7ee70}, !- Handle
  ASHRAE 189.1-2009 ExtRoof IEAD ClimateZone 2-5, !- Name
  ,                                       !- Surface Rendering Name
  {45680edd-b808-4940-8159-50cdf260ba42}, !- Layer 1
  {fb0a9b3c-cb52-4405-a9c8-f57d51cd8382}, !- Layer 2
  {66ab96cd-e05a-4e4e-9a2f-2aae23c528c8}; !- Layer 3

OS:StandardsInformation:Construction,
  {77ef43c5-1db0-4b66-96e3-0d992e46a299}, !- Handle
  {87eb0930-27fe-43a5-9686-6be4aab7ee70}, !- Construction Name
  ExteriorRoof,                           !- Intended Surface Type
  IEAD;                                   !- Standards Construction Type

OS:Material,
  {fb0a9b3c-cb52-4405-a9c8-f57d51cd8382}, !- Handle
  Roof Insulation [21],                   !- Name
  MediumRough,                            !- Roughness
  0.2105,                                 !- Thickness {m}
  0.049,                                  !- Conductivity {W/m-K}
  265,                                    !- Density {kg/m3}
  836.800000000001,                       !- Specific Heat {J/kg-K}
  0.9,                                    !- Thermal Absorptance
  0.7,                                    !- Solar Absorptance
  0.7;                                    !- Visible Absorptance

OS:Construction,
  {2e3d253e-9e72-4913-ad0a-426283bf5586}, !- Handle
  ASHRAE 189.1-2009 ExtRoof IEAD ClimateZone 6, !- Name
  ,                                       !- Surface Rendering Name
  {45680edd-b808-4940-8159-50cdf260ba42}, !- Layer 1
  {5455738f-d617-4bdb-9082-bfde5c87fa40}, !- Layer 2
  {66ab96cd-e05a-4e4e-9a2f-2aae23c528c8}; !- Layer 3

OS:StandardsInformation:Construction,
  {2f1b86f9-3f65-41c1-9f2d-94b3a7fe6807}, !- Handle
  {2e3d253e-9e72-4913-ad0a-426283bf5586}, !- Construction Name
  ExteriorRoof,                           !- Intended Surface Type
  IEAD;                                   !- Standards Construction Type

OS:Material,
  {5455738f-d617-4bdb-9082-bfde5c87fa40}, !- Handle
  Roof Insulation [24],                   !- Name
  MediumRough,                            !- Roughness
  0.260100000000001,                      !- Thickness {m}
  0.049,                                  !- Conductivity {W/m-K}
  265,                                    !- Density {kg/m3}
  836.800000000001,                       !- Specific Heat {J/kg-K}
  0.9,                                    !- Thermal Absorptance
  0.7,                                    !- Solar Absorptance
  0.7;                                    !- Visible Absorptance

OS:Construction,
  {e03c2065-dab6-428b-a9aa-b3a4beff8dd4}, !- Handle
  ASHRAE 189.1-2009 ExtRoof IEAD ClimateZone 7-8, !- Name
  ,                                       !- Surface Rendering Name
  {45680edd-b808-4940-8159-50cdf260ba42}, !- Layer 1
  {3b9f09a5-6f76-42da-829c-36384d597554}, !- Layer 2
  {66ab96cd-e05a-4e4e-9a2f-2aae23c528c8}; !- Layer 3

OS:StandardsInformation:Construction,
  {5a3f0418-337d-4c6f-8220-dcfa4f2d3b8c}, !- Handle
  {e03c2065-dab6-428b-a9aa-b3a4beff8dd4}, !- Construction Name
  ExteriorRoof,                           !- Intended Surface Type
  IEAD;                                   !- Standards Construction Type

OS:Material,
  {3b9f09a5-6f76-42da-829c-36384d597554}, !- Handle
  Roof Insulation [26],                   !- Name
  MediumRough,                            !- Roughness
  0.2941,                                 !- Thickness {m}
  0.049,                                  !- Conductivity {W/m-K}
  265,                                    !- Density {kg/m3}
  836.800000000001,                       !- Specific Heat {J/kg-K}
  0.9,                                    !- Thermal Absorptance
  0.7,                                    !- Solar Absorptance
  0.7;                                    !- Visible Absorptance

OS:Construction,
  {a1f5084a-e0a3-4a0d-8289-75be166bdfab}, !- Handle
  ASHRAE 189.1-2009 ExtRoof Metal ClimateZone 1, !- Name
  ,                                       !- Surface Rendering Name
  {72bc700a-5771-4ed2-a98a-6231122f9792}, !- Layer 1
  {7bdc0e03-3915-490a-9a21-fb389901880b}; !- Layer 2

OS:StandardsInformation:Construction,
  {44f8d9ec-40dc-4f68-ba00-4d5fc0cd95e9}, !- Handle
  {a1f5084a-e0a3-4a0d-8289-75be166bdfab}, !- Construction Name
  ExteriorRoof,                           !- Intended Surface Type
  Metal;                                  !- Standards Construction Type

OS:Material,
  {72bc700a-5771-4ed2-a98a-6231122f9792}, !- Handle
  Metal Roofing,                          !- Name
  MediumSmooth,                           !- Roughness
  0.0015,                                 !- Thickness {m}
  45.006,                                 !- Conductivity {W/m-K}
  7680,                                   !- Density {kg/m3}
  418.4,                                  !- Specific Heat {J/kg-K}
  0.9,                                    !- Thermal Absorptance
  0.3,                                    !- Solar Absorptance
  0.3;                                    !- Visible Absorptance

OS:Material,
  {7bdc0e03-3915-490a-9a21-fb389901880b}, !- Handle
  Roof Insulation [19],                   !- Name
  MediumRough,                            !- Roughness
  0.1868,                                 !- Thickness {m}
  0.049,                                  !- Conductivity {W/m-K}
  265,                                    !- Density {kg/m3}
  836.800000000001,                       !- Specific Heat {J/kg-K}
  0.9,                                    !- Thermal Absorptance
  0.7,                                    !- Solar Absorptance
  0.7;                                    !- Visible Absorptance

OS:Construction,
  {f0c8c9c0-f02c-48b2-b047-92bb86f18d5b}, !- Handle
  ASHRAE 189.1-2009 ExtRoof Metal ClimateZone 2-5, !- Name
  ,                                       !- Surface Rendering Name
  {72bc700a-5771-4ed2-a98a-6231122f9792}, !- Layer 1
  {05cfa23c-7ce8-416e-a098-4156b4298b04}; !- Layer 2

OS:StandardsInformation:Construction,
  {25490323-01d7-4639-9bf2-6d8d38220996}, !- Handle
  {f0c8c9c0-f02c-48b2-b047-92bb86f18d5b}, !- Construction Name
  ExteriorRoof,                           !- Intended Surface Type
  Metal;                                  !- Standards Construction Type

OS:Material,
  {05cfa23c-7ce8-416e-a098-4156b4298b04}, !- Handle
  Roof Insulation [22],                   !- Name
  MediumRough,                            !- Roughness
  0.2358,                                 !- Thickness {m}
  0.049,                                  !- Conductivity {W/m-K}
  265,                                    !- Density {kg/m3}
  836.800000000001,                       !- Specific Heat {J/kg-K}
  0.9,                                    !- Thermal Absorptance
  0.7,                                    !- Solar Absorptance
  0.7;                                    !- Visible Absorptance

OS:Construction,
  {5928a0ba-0adc-4fe2-957c-5f6aab30c117}, !- Handle
  ASHRAE 189.1-2009 ExtRoof Metal ClimateZone 6, !- Name
  ,                                       !- Surface Rendering Name
  {72bc700a-5771-4ed2-a98a-6231122f9792}, !- Layer 1
  {0c286c88-88eb-496e-bfc7-d1dd9ef4e7ef}; !- Layer 2

OS:StandardsInformation:Construction,
  {4823fd30-ad0f-4203-aec2-a8e74704c0cc}, !- Handle
  {5928a0ba-0adc-4fe2-957c-5f6aab30c117}, !- Construction Name
  ExteriorRoof,                           !- Intended Surface Type
  Metal;                                  !- Standards Construction Type

OS:Material,
  {0c286c88-88eb-496e-bfc7-d1dd9ef4e7ef}, !- Handle
  Roof Insulation [25],                   !- Name
  MediumRough,                            !- Roughness
  0.263,                                  !- Thickness {m}
  0.049,                                  !- Conductivity {W/m-K}
  265,                                    !- Density {kg/m3}
  836.800000000001,                       !- Specific Heat {J/kg-K}
  0.9,                                    !- Thermal Absorptance
  0.7,                                    !- Solar Absorptance
  0.7;                                    !- Visible Absorptance

OS:Construction,
  {7762aefb-bc88-4267-b383-8ca3823199ae}, !- Handle
  ASHRAE 189.1-2009 ExtRoof Metal ClimateZone 7-8, !- Name
  ,                                       !- Surface Rendering Name
  {72bc700a-5771-4ed2-a98a-6231122f9792}, !- Layer 1
  {177559a1-c044-4b4c-b9dc-f40fcbb58e13}; !- Layer 2

OS:StandardsInformation:Construction,
  {22f5f5fc-3687-462a-927a-9202d58f71ec}, !- Handle
  {7762aefb-bc88-4267-b383-8ca3823199ae}, !- Construction Name
  ExteriorRoof,                           !- Intended Surface Type
  Metal;                                  !- Standards Construction Type

OS:Material,
  {177559a1-c044-4b4c-b9dc-f40fcbb58e13}, !- Handle
  Roof Insulation [27],                   !- Name
  MediumRough,                            !- Roughness
  0.297000000000001,                      !- Thickness {m}
  0.049,                                  !- Conductivity {W/m-K}
  265,                                    !- Density {kg/m3}
  836.800000000001,                       !- Specific Heat {J/kg-K}
  0.9,                                    !- Thermal Absorptance
  0.7,                                    !- Solar Absorptance
  0.7;                                    !- Visible Absorptance

OS:Construction,
  {0f237466-ff18-4fb5-9fc1-348f49f9f2bd}, !- Handle
  ASHRAE 189.1-2009 ExtWall Mass ClimateZone 1, !- Name
  ,                                       !- Surface Rendering Name
  {a3851cf5-6545-42b0-84ad-aa6e7b8cc138}, !- Layer 1
  {f2cfcbaf-7613-42c8-87fe-9a41f1e9b78f}, !- Layer 2
  {b4d8e1a8-72a7-474b-8c10-c7cfce246e11}, !- Layer 3
  {aed99863-381c-4ed9-9cf1-c7dab08f9c82}; !- Layer 4

OS:StandardsInformation:Construction,
  {c357851a-afad-4418-b443-340d070b129f}, !- Handle
  {0f237466-ff18-4fb5-9fc1-348f49f9f2bd}, !- Construction Name
  ExteriorWall,                           !- Intended Surface Type
  Mass;                                   !- Standards Construction Type

OS:Material,
  {a3851cf5-6545-42b0-84ad-aa6e7b8cc138}, !- Handle
  1IN Stucco,                             !- Name
  Smooth,                                 !- Roughness
  0.0253,                                 !- Thickness {m}
  0.691799999999999,                      !- Conductivity {W/m-K}
  1858,                                   !- Density {kg/m3}
  836.999999999999,                       !- Specific Heat {J/kg-K}
  0.9,                                    !- Thermal Absorptance
  0.92,                                   !- Solar Absorptance
  0.92;                                   !- Visible Absorptance

OS:Material,
  {f2cfcbaf-7613-42c8-87fe-9a41f1e9b78f}, !- Handle
  8IN Concrete HW,                        !- Name
  MediumRough,                            !- Roughness
  0.2033,                                 !- Thickness {m}
  1.72959999999999,                       !- Conductivity {W/m-K}
  2242.99999999999,                       !- Density {kg/m3}
  836.999999999999,                       !- Specific Heat {J/kg-K}
  0.9,                                    !- Thermal Absorptance
  0.65,                                   !- Solar Absorptance
  0.65;                                   !- Visible Absorptance

OS:Material,
  {b4d8e1a8-72a7-474b-8c10-c7cfce246e11}, !- Handle
  Wall Insulation [31],                   !- Name
  MediumRough,                            !- Roughness
  0.0337000000000001,                     !- Thickness {m}
  0.0432,                                 !- Conductivity {W/m-K}
  91,                                     !- Density {kg/m3}
  836.999999999999,                       !- Specific Heat {J/kg-K}
  0.9,                                    !- Thermal Absorptance
  0.5,                                    !- Solar Absorptance
  0.5;                                    !- Visible Absorptance

OS:Construction,
  {cfa336ad-cb30-4ea6-8a78-dd61a2627502}, !- Handle
  ASHRAE 189.1-2009 ExtWall Mass ClimateZone 2, !- Name
  ,                                       !- Surface Rendering Name
  {a3851cf5-6545-42b0-84ad-aa6e7b8cc138}, !- Layer 1
  {f2cfcbaf-7613-42c8-87fe-9a41f1e9b78f}, !- Layer 2
  {9de422e1-a609-4096-933b-73e6a37af7aa}, !- Layer 3
  {aed99863-381c-4ed9-9cf1-c7dab08f9c82}; !- Layer 4

OS:StandardsInformation:Construction,
  {05cc7b89-f6fb-4fa2-a897-d2e2b829c329}, !- Handle
  {cfa336ad-cb30-4ea6-8a78-dd61a2627502}, !- Construction Name
  ExteriorWall,                           !- Intended Surface Type
  Mass;                                   !- Standards Construction Type

OS:Material,
  {9de422e1-a609-4096-933b-73e6a37af7aa}, !- Handle
  Wall Insulation [35],                   !- Name
  MediumRough,                            !- Roughness
  0.0452,                                 !- Thickness {m}
  0.0432,                                 !- Conductivity {W/m-K}
  91,                                     !- Density {kg/m3}
  836.999999999999,                       !- Specific Heat {J/kg-K}
  0.9,                                    !- Thermal Absorptance
  0.5,                                    !- Solar Absorptance
  0.5;                                    !- Visible Absorptance

OS:Construction,
  {004bada4-a60c-43be-b86d-cc82ff81f101}, !- Handle
  ASHRAE 189.1-2009 ExtWall Mass ClimateZone 3, !- Name
  ,                                       !- Surface Rendering Name
  {a3851cf5-6545-42b0-84ad-aa6e7b8cc138}, !- Layer 1
  {f2cfcbaf-7613-42c8-87fe-9a41f1e9b78f}, !- Layer 2
  {60cbafbd-159f-482e-93e4-aad67c5cd5cd}, !- Layer 3
  {aed99863-381c-4ed9-9cf1-c7dab08f9c82}; !- Layer 4

OS:StandardsInformation:Construction,
  {e91bf581-6167-42e1-9256-185cbbcfca3f}, !- Handle
  {004bada4-a60c-43be-b86d-cc82ff81f101}, !- Construction Name
  ExteriorWall,                           !- Intended Surface Type
  Mass;                                   !- Standards Construction Type

OS:Material,
  {60cbafbd-159f-482e-93e4-aad67c5cd5cd}, !- Handle
  Wall Insulation [36],                   !- Name
  MediumRough,                            !- Roughness
  0.0565999999999999,                     !- Thickness {m}
  0.0432,                                 !- Conductivity {W/m-K}
  91,                                     !- Density {kg/m3}
  836.999999999999,                       !- Specific Heat {J/kg-K}
  0.9,                                    !- Thermal Absorptance
  0.5,                                    !- Solar Absorptance
  0.5;                                    !- Visible Absorptance

OS:Construction,
  {8bfc970f-9062-45f1-bf0a-8dddaf9a5511}, !- Handle
  ASHRAE 189.1-2009 ExtWall Mass ClimateZone 4, !- Name
  ,                                       !- Surface Rendering Name
  {a3851cf5-6545-42b0-84ad-aa6e7b8cc138}, !- Layer 1
  {f2cfcbaf-7613-42c8-87fe-9a41f1e9b78f}, !- Layer 2
  {889630ed-4380-42d3-9afd-acad264d448c}, !- Layer 3
  {aed99863-381c-4ed9-9cf1-c7dab08f9c82}; !- Layer 4

OS:StandardsInformation:Construction,
  {f3b50ecd-2f3d-49f1-9e83-164a5e200af4}, !- Handle
  {8bfc970f-9062-45f1-bf0a-8dddaf9a5511}, !- Construction Name
  ExteriorWall,                           !- Intended Surface Type
  Mass;                                   !- Standards Construction Type

OS:Material,
  {889630ed-4380-42d3-9afd-acad264d448c}, !- Handle
  Wall Insulation [37],                   !- Name
  MediumRough,                            !- Roughness
  0.0680999999999999,                     !- Thickness {m}
  0.0432,                                 !- Conductivity {W/m-K}
  91,                                     !- Density {kg/m3}
  836.999999999999,                       !- Specific Heat {J/kg-K}
  0.9,                                    !- Thermal Absorptance
  0.5,                                    !- Solar Absorptance
  0.5;                                    !- Visible Absorptance

OS:Construction,
  {4b863d52-8000-433e-b7ec-eee599267adc}, !- Handle
  ASHRAE 189.1-2009 ExtWall Mass ClimateZone 5, !- Name
  ,                                       !- Surface Rendering Name
  {a3851cf5-6545-42b0-84ad-aa6e7b8cc138}, !- Layer 1
  {f2cfcbaf-7613-42c8-87fe-9a41f1e9b78f}, !- Layer 2
  {588a8ee7-56ec-41bd-83cc-debf02616a9c}, !- Layer 3
  {aed99863-381c-4ed9-9cf1-c7dab08f9c82}; !- Layer 4

OS:StandardsInformation:Construction,
  {22a6dda3-8b1d-4afb-9557-1f2f5c360daf}, !- Handle
  {4b863d52-8000-433e-b7ec-eee599267adc}, !- Construction Name
  ExteriorWall,                           !- Intended Surface Type
  Mass;                                   !- Standards Construction Type

OS:Material,
  {588a8ee7-56ec-41bd-83cc-debf02616a9c}, !- Handle
  Wall Insulation [40],                   !- Name
  MediumRough,                            !- Roughness
  0.0793999999999999,                     !- Thickness {m}
  0.0432,                                 !- Conductivity {W/m-K}
  91,                                     !- Density {kg/m3}
  836.999999999999,                       !- Specific Heat {J/kg-K}
  0.9,                                    !- Thermal Absorptance
  0.5,                                    !- Solar Absorptance
  0.5;                                    !- Visible Absorptance

OS:Construction,
  {a0c39e56-31c6-413b-b446-a3e73a0e82f5}, !- Handle
  ASHRAE 189.1-2009 ExtWall Mass ClimateZone 6, !- Name
  ,                                       !- Surface Rendering Name
  {a3851cf5-6545-42b0-84ad-aa6e7b8cc138}, !- Layer 1
  {f2cfcbaf-7613-42c8-87fe-9a41f1e9b78f}, !- Layer 2
  {dfac9d70-9e65-47d7-ae5d-1d9a3fb0ef26}, !- Layer 3
  {aed99863-381c-4ed9-9cf1-c7dab08f9c82}; !- Layer 4

OS:StandardsInformation:Construction,
  {7561de4c-6bc2-4357-93a0-0ddc5abad893}, !- Handle
  {a0c39e56-31c6-413b-b446-a3e73a0e82f5}, !- Construction Name
  ExteriorWall,                           !- Intended Surface Type
  Mass;                                   !- Standards Construction Type

OS:Material,
  {dfac9d70-9e65-47d7-ae5d-1d9a3fb0ef26}, !- Handle
  Wall Insulation [42],                   !- Name
  MediumRough,                            !- Roughness
  0.0913999999999999,                     !- Thickness {m}
  0.0432,                                 !- Conductivity {W/m-K}
  91,                                     !- Density {kg/m3}
  836.999999999999,                       !- Specific Heat {J/kg-K}
  0.9,                                    !- Thermal Absorptance
  0.5,                                    !- Solar Absorptance
  0.5;                                    !- Visible Absorptance

OS:Construction,
  {3f13966c-9bf0-4662-83d0-754894e053dd}, !- Handle
  ASHRAE 189.1-2009 ExtWall Mass ClimateZone 7-8, !- Name
  ,                                       !- Surface Rendering Name
  {a3851cf5-6545-42b0-84ad-aa6e7b8cc138}, !- Layer 1
  {f2cfcbaf-7613-42c8-87fe-9a41f1e9b78f}, !- Layer 2
  {19b7f4c0-91ea-4973-9dac-d739b5abcb41}, !- Layer 3
  {aed99863-381c-4ed9-9cf1-c7dab08f9c82}; !- Layer 4

OS:StandardsInformation:Construction,
  {e858f0c7-13c1-44c0-82cb-6183e0c09c60}, !- Handle
  {3f13966c-9bf0-4662-83d0-754894e053dd}, !- Construction Name
  ExteriorWall,                           !- Intended Surface Type
  Mass;                                   !- Standards Construction Type

OS:Material,
  {19b7f4c0-91ea-4973-9dac-d739b5abcb41}, !- Handle
  Wall Insulation [44],                   !- Name
  MediumRough,                            !- Roughness
  0.1104,                                 !- Thickness {m}
  0.0432,                                 !- Conductivity {W/m-K}
  91,                                     !- Density {kg/m3}
  836.999999999999,                       !- Specific Heat {J/kg-K}
  0.9,                                    !- Thermal Absorptance
  0.5,                                    !- Solar Absorptance
  0.5;                                    !- Visible Absorptance

OS:Construction,
  {3a4f45f2-ff3f-4c22-a341-3cd1f4d99c7f}, !- Handle
  ASHRAE 189.1-2009 ExtWall Mass ClimateZone alt-res 1, !- Name
  ,                                       !- Surface Rendering Name
  {a3851cf5-6545-42b0-84ad-aa6e7b8cc138}, !- Layer 1
  {f2cfcbaf-7613-42c8-87fe-9a41f1e9b78f}, !- Layer 2
  {9de422e1-a609-4096-933b-73e6a37af7aa}, !- Layer 3
  {aed99863-381c-4ed9-9cf1-c7dab08f9c82}; !- Layer 4

OS:StandardsInformation:Construction,
  {85002263-5255-4262-8233-d7305f68e74f}, !- Handle
  {3a4f45f2-ff3f-4c22-a341-3cd1f4d99c7f}, !- Construction Name
  ExteriorWall,                           !- Intended Surface Type
  Mass;                                   !- Standards Construction Type

OS:Construction,
  {340ad1ec-ab5b-4afc-9196-32c86e7249fb}, !- Handle
  ASHRAE 189.1-2009 ExtWall Mass ClimateZone alt-res 2, !- Name
  ,                                       !- Surface Rendering Name
  {a3851cf5-6545-42b0-84ad-aa6e7b8cc138}, !- Layer 1
  {f2cfcbaf-7613-42c8-87fe-9a41f1e9b78f}, !- Layer 2
  {60cbafbd-159f-482e-93e4-aad67c5cd5cd}, !- Layer 3
  {aed99863-381c-4ed9-9cf1-c7dab08f9c82}; !- Layer 4

OS:StandardsInformation:Construction,
  {8c7ab3b6-5b03-4e0f-83b6-9661fb399c2a}, !- Handle
  {340ad1ec-ab5b-4afc-9196-32c86e7249fb}, !- Construction Name
  ExteriorWall,                           !- Intended Surface Type
  Mass;                                   !- Standards Construction Type

OS:Construction,
  {2e2cf6ae-e7d5-4856-b308-99f056959ed2}, !- Handle
  ASHRAE 189.1-2009 ExtWall Mass ClimateZone alt-res 3, !- Name
  ,                                       !- Surface Rendering Name
  {a3851cf5-6545-42b0-84ad-aa6e7b8cc138}, !- Layer 1
  {f2cfcbaf-7613-42c8-87fe-9a41f1e9b78f}, !- Layer 2
  {889630ed-4380-42d3-9afd-acad264d448c}, !- Layer 3
  {aed99863-381c-4ed9-9cf1-c7dab08f9c82}; !- Layer 4

OS:StandardsInformation:Construction,
  {e014d1d9-801d-45eb-94c1-d4c746a50b0b}, !- Handle
  {2e2cf6ae-e7d5-4856-b308-99f056959ed2}, !- Construction Name
  ExteriorWall,                           !- Intended Surface Type
  Mass;                                   !- Standards Construction Type

OS:Construction,
  {3cb11e78-69a9-4736-bfee-1da9f857add5}, !- Handle
  ASHRAE 189.1-2009 ExtWall Mass ClimateZone alt-res 4, !- Name
  ,                                       !- Surface Rendering Name
  {a3851cf5-6545-42b0-84ad-aa6e7b8cc138}, !- Layer 1
  {f2cfcbaf-7613-42c8-87fe-9a41f1e9b78f}, !- Layer 2
  {588a8ee7-56ec-41bd-83cc-debf02616a9c}, !- Layer 3
  {aed99863-381c-4ed9-9cf1-c7dab08f9c82}; !- Layer 4

OS:StandardsInformation:Construction,
  {8a9a62a2-52ff-4257-ba99-fffe0b995d5b}, !- Handle
  {3cb11e78-69a9-4736-bfee-1da9f857add5}, !- Construction Name
  ExteriorWall,                           !- Intended Surface Type
  Mass;                                   !- Standards Construction Type

OS:Construction,
  {6480ee3f-b909-4f47-a4ed-401d92f20fd2}, !- Handle
  ASHRAE 189.1-2009 ExtWall Mass ClimateZone alt-res 5, !- Name
  ,                                       !- Surface Rendering Name
  {a3851cf5-6545-42b0-84ad-aa6e7b8cc138}, !- Layer 1
  {f2cfcbaf-7613-42c8-87fe-9a41f1e9b78f}, !- Layer 2
  {dfac9d70-9e65-47d7-ae5d-1d9a3fb0ef26}, !- Layer 3
  {aed99863-381c-4ed9-9cf1-c7dab08f9c82}; !- Layer 4

OS:StandardsInformation:Construction,
  {3128d718-a650-493c-ae50-f3a82db852b1}, !- Handle
  {6480ee3f-b909-4f47-a4ed-401d92f20fd2}, !- Construction Name
  ExteriorWall,                           !- Intended Surface Type
  Mass;                                   !- Standards Construction Type

OS:Construction,
  {a1d44745-c2c3-419b-be54-d28cacceefa4}, !- Handle
  ASHRAE 189.1-2009 ExtWall Mass ClimateZone alt-res 6, !- Name
  ,                                       !- Surface Rendering Name
  {a3851cf5-6545-42b0-84ad-aa6e7b8cc138}, !- Layer 1
  {f2cfcbaf-7613-42c8-87fe-9a41f1e9b78f}, !- Layer 2
  {19b7f4c0-91ea-4973-9dac-d739b5abcb41}, !- Layer 3
  {aed99863-381c-4ed9-9cf1-c7dab08f9c82}; !- Layer 4

OS:StandardsInformation:Construction,
  {9419fae5-feff-45db-89e4-524e8a236abf}, !- Handle
  {a1d44745-c2c3-419b-be54-d28cacceefa4}, !- Construction Name
  ExteriorWall,                           !- Intended Surface Type
  Mass;                                   !- Standards Construction Type

OS:Construction,
  {b64a7585-2f9e-4d24-afc5-63e9ccb5b3e4}, !- Handle
  ASHRAE 189.1-2009 ExtWall Mass ClimateZone alt-res 7, !- Name
  ,                                       !- Surface Rendering Name
  {a3851cf5-6545-42b0-84ad-aa6e7b8cc138}, !- Layer 1
  {f2cfcbaf-7613-42c8-87fe-9a41f1e9b78f}, !- Layer 2
  {19b7f4c0-91ea-4973-9dac-d739b5abcb41}, !- Layer 3
  {aed99863-381c-4ed9-9cf1-c7dab08f9c82}; !- Layer 4

OS:StandardsInformation:Construction,
  {2cfd58fb-b0bc-4763-9e00-5eb894a04eb7}, !- Handle
  {b64a7585-2f9e-4d24-afc5-63e9ccb5b3e4}, !- Construction Name
  ExteriorWall,                           !- Intended Surface Type
  Mass;                                   !- Standards Construction Type

OS:Construction,
  {f992837b-1f4d-4e3c-a0bb-d37a70d14aff}, !- Handle
  ASHRAE 189.1-2009 ExtWall Mass ClimateZone alt-res 8, !- Name