
OS:Version,
  {f8f88252-4ef5-425f-bc4e-d1815e246eed}, !- Handle
  1.4.0;                                  !- Version Identifier

OS:Construction,
  {af58ffdd-9763-41c2-a43a-9da32e0c8dc7}, !- Handle
  ASHRAE 189.1-2009 AtticFloor ClimateZone 1-8, !- Name
  ,                                       !- Surface Rendering Name
  {7790e08f-25cc-44bf-826e-84ec3b0140bb}, !- Layer 1
  {4132f6a5-c779-4a1e-8606-2e5a3a534a58}, !- Layer 2
  {7790e08f-25cc-44bf-826e-84ec3b0140bb}; !- Layer 3

OS:StandardsInformation:Construction,
  {5f2eca84-cffd-4a40-ade3-10316d548a21}, !- Handle
  {af58ffdd-9763-41c2-a43a-9da32e0c8dc7}, !- Construction Name
  AtticFloor,                             !- Intended Surface Type
  WoodFramed;                             !- Standards Construction Type

OS:Material,
  {7790e08f-25cc-44bf-826e-84ec3b0140bb}, !- Handle
  1/2IN Gypsum,                           !- Name
  Smooth,                                 !- Roughness
  0.0127,                                 !- Thickness {m}
  0.16,                                   !- Conductivity {W/m-K}
  784.9,                                  !- Density {kg/m3}
  830.000000000001,                       !- Specific Heat {J/kg-K}
  0.9,                                    !- Thermal Absorptance
  0.4,                                    !- Solar Absorptance
  0.4;                                    !- Visible Absorptance

OS:Material,
  {4132f6a5-c779-4a1e-8606-2e5a3a534a58}, !- Handle
  AtticFloor Insulation,                  !- Name
  MediumRough,                            !- Roughness
  0.2379,                                 !- Thickness {m}
  0.049,                                  !- Conductivity {W/m-K}
  265,                                    !- Density {kg/m3}
  836.800000000001,                       !- Specific Heat {J/kg-K}
  0.9,                                    !- Thermal Absorptance
  0.7,                                    !- Solar Absorptance
  0.7;                                    !- Visible Absorptance

OS:Construction,
  {ce225b8a-252b-4cf6-9e65-26fd876b6441}, !- Handle
  ASHRAE 189.1-2009 ExtRoof IEAD ClimateZone 1, !- Name
  ,                                       !- Surface Rendering Name
  {efeb4d54-68be-426e-9d0b-849f6277ef82}, !- Layer 1
  {a75a6f5e-a46c-412b-bcdc-e162dffbb19f}, !- Layer 2
  {3213aca0-fd26-4a69-af98-edaa841ac039}; !- Layer 3

OS:StandardsInformation:Construction,
  {3106fb16-58c8-4089-90e4-d3bad62dce7b}, !- Handle
  {ce225b8a-252b-4cf6-9e65-26fd876b6441}, !- Construction Name
  ExteriorRoof,                           !- Intended Surface Type
  IEAD;                                   !- Standards Construction Type

OS:Material,
  {efeb4d54-68be-426e-9d0b-849f6277ef82}, !- Handle
  Roof Membrane,                          !- Name
  VeryRough,                              !- Roughness
  0.0095,                                 !- Thickness {m}
  0.16,                                   !- Conductivity {W/m-K}
  1121.29,                                !- Density {kg/m3}
  1460,                                   !- Specific Heat {J/kg-K}
  0.9,                                    !- Thermal Absorptance
  0.7,                                    !- Solar Absorptance
  0.7;                                    !- Visible Absorptance

OS:Material,
  {a75a6f5e-a46c-412b-bcdc-e162dffbb19f}, !- Handle
  Roof Insulation [18],                   !- Name
  MediumRough,                            !- Roughness
  0.1693,                                 !- Thickness {m}
  0.049,                                  !- Conductivity {W/m-K}
  265,                                    !- Density {kg/m3}
  836.800000000001,                       !- Specific Heat {J/kg-K}
  0.9,                                    !- Thermal Absorptance
  0.7,                                    !- Solar Absorptance
  0.7;                                    !- Visible Absorptance

OS:Material,
  {3213aca0-fd26-4a69-af98-edaa841ac039}, !- Handle
  Metal Decking,                          !- Name
  MediumSmooth,                           !- Roughness
  0.0015,                                 !- Thickness {m}
  45.006,                                 !- Conductivity {W/m-K}
  7680,                                   !- Density {kg/m3}
  418.4,                                  !- Specific Heat {J/kg-K}
  0.9,                                    !- Thermal Absorptance
  0.6,                                    !- Solar Absorptance
  0.6;                                    !- Visible Absorptance

OS:Construction,
  {9102c738-decf-4355-80f2-49fa5220eb23}, !- Handle
  ASHRAE 189.1-2009 ExtRoof IEAD ClimateZone 2-5, !- Name
  ,                                       !- Surface Rendering Name
  {efeb4d54-68be-426e-9d0b-849f6277ef82}, !- Layer 1
  {16a16e6a-41a0-42f0-af88-ccb2333d1dd0}, !- Layer 2
  {3213aca0-fd26-4a69-af98-edaa841ac039}; !- Layer 3

OS:StandardsInformation:Construction,
  {1b1d021c-0034-4b27-9377-535d555dc8f5}, !- Handle
  {9102c738-decf-4355-80f2-49fa5220eb23}, !- Construction Name
  ExteriorRoof,                           !- Intended Surface Type
  IEAD;                                   !- Standards Construction Type

OS:Material,
  {16a16e6a-41a0-42f0-af88-ccb2333d1dd0}, !- Handle
  Roof Insulation [21],                   !- Name
  MediumRough,                            !- Roughness
  0.2105,                                 !- Thickness {m}
  0.049,                                  !- Conductivity {W/m-K}
  265,                                    !- Density {kg/m3}
  836.800000000001,                       !- Specific Heat {J/kg-K}
  0.9,                                    !- Thermal Absorptance
  0.7,                                    !- Solar Absorptance
  0.7;                                    !- Visible Absorptance

OS:Construction,
  {9b8dde0c-4988-4d64-9479-999323827a2e}, !- Handle
  ASHRAE 189.1-2009 ExtRoof IEAD ClimateZone 6, !- Name
  ,                                       !- Surface Rendering Name
  {efeb4d54-68be-426e-9d0b-849f6277ef82}, !- Layer 1
  {127a3a27-5aaa-4c04-9834-4713a735b524}, !- Layer 2
  {3213aca0-fd26-4a69-af98-edaa841ac039}; !- Layer 3

OS:StandardsInformation:Construction,
  {005a50a0-3f22-4dd7-bfee-9da32e8b6ff7}, !- Handle
  {9b8dde0c-4988-4d64-9479-999323827a2e}, !- Construction Name
  ExteriorRoof,                           !- Intended Surface Type
  IEAD;                                   !- Standards Construction Type

OS:Material,
  {127a3a27-5aaa-4c04-9834-4713a735b524}, !- Handle
  Roof Insulation [24],                   !- Name
  MediumRough,                            !- Roughness
  0.260100000000001,                      !- Thickness {m}
  0.049,                                  !- Conductivity {W/m-K}
  265,                                    !- Density {kg/m3}
  836.800000000001,                       !- Specific Heat {J/kg-K}
  0.9,                                    !- Thermal Absorptance
  0.7,                                    !- Solar Absorptance
  0.7;                                    !- Visible Absorptance

OS:Construction,
  {fea8e6f7-a6a4-40be-9a97-93b238234390}, !- Handle
  ASHRAE 189.1-2009 ExtRoof IEAD ClimateZone 7-8, !- Name
  ,                                       !- Surface Rendering Name
  {efeb4d54-68be-426e-9d0b-849f6277ef82}, !- Layer 1
  {21ae678f-70d8-461c-a275-17c462810d04}, !- Layer 2
  {3213aca0-fd26-4a69-af98-edaa841ac039}; !- Layer 3

OS:StandardsInformation:Construction,
  {0ee81903-aeb6-4460-a4fe-d86a1e2bbe4f}, !- Handle
  {fea8e6f7-a6a4-40be-9a97-93b238234390}, !- Construction Name
  ExteriorRoof,                           !- Intended Surface Type
  IEAD;                                   !- Standards Construction Type

OS:Material,
  {21ae678f-70d8-461c-a275-17c462810d04}, !- Handle
  Roof Insulation [26],                   !- Name
  MediumRough,                            !- Roughness
  0.2941,                                 !- Thickness {m}
  0.049,                                  !- Conductivity {W/m-K}
  265,                                    !- Density {kg/m3}
  836.800000000001,                       !- Specific Heat {J/kg-K}
  0.9,                                    !- Thermal Absorptance
  0.7,                                    !- Solar Absorptance
  0.7;                                    !- Visible Absorptance

OS:Construction,
  {9cec8a54-063e-4dc9-85bc-0beba26a0f9a}, !- Handle
  ASHRAE 189.1-2009 ExtRoof Metal ClimateZone 1, !- Name
  ,                                       !- Surface Rendering Name
  {dabfc9fe-b741-475f-ad92-f0e4206b78de}, !- Layer 1
  {12dd0b98-55ae-42bd-9cae-72b3392ddc63}, !- Layer 2
  {3213aca0-fd26-4a69-af98-edaa841ac039}; !- Layer 3

OS:StandardsInformation:Construction,
  {e5b2a570-1337-4fa5-bcb7-2b0ce361a1bb}, !- Handle
  {9cec8a54-063e-4dc9-85bc-0beba26a0f9a}, !- Construction Name
  ExteriorRoof,                           !- Intended Surface Type
  Metal;                                  !- Standards Construction Type

OS:Material,
  {dabfc9fe-b741-475f-ad92-f0e4206b78de}, !- Handle
  Metal Roofing,                          !- Name
  MediumSmooth,                           !- Roughness
  0.0015,                                 !- Thickness {m}
  45.006,                                 !- Conductivity {W/m-K}
  7680,                                   !- Density {kg/m3}
  418.4,                                  !- Specific Heat {J/kg-K}
  0.9,                                    !- Thermal Absorptance
  0.6,                                    !- Solar Absorptance
  0.6;                                    !- Visible Absorptance

OS:Material,
  {12dd0b98-55ae-42bd-9cae-72b3392ddc63}, !- Handle
  Roof Insulation [19],                   !- Name
  MediumRough,                            !- Roughness
  0.1868,                                 !- Thickness {m}
  0.049,                                  !- Conductivity {W/m-K}
  265,                                    !- Density {kg/m3}
  836.800000000001,                       !- Specific Heat {J/kg-K}
  0.9,                                    !- Thermal Absorptance
  0.7,                                    !- Solar Absorptance
  0.7;                                    !- Visible Absorptance

OS:Construction,
  {33c4e4f1-9dca-4db4-be17-c34c5e69c6c9}, !- Handle
  ASHRAE 189.1-2009 ExtRoof Metal ClimateZone 2-5, !- Name
  ,                                       !- Surface Rendering Name
  {dabfc9fe-b741-475f-ad92-f0e4206b78de}, !- Layer 1
  {46d8bcbc-4a49-4bc2-96be-4c812b8a441c}, !- Layer 2
  {3213aca0-fd26-4a69-af98-edaa841ac039}; !- Layer 3

OS:StandardsInformation:Construction,
  {791f97e7-c194-4c5d-8baf-cb2237f6524a}, !- Handle
  {33c4e4f1-9dca-4db4-be17-c34c5e69c6c9}, !- Construction Name
  ExteriorRoof,                           !- Intended Surface Type
  Metal;                                  !- Standards Construction Type

OS:Material,
  {46d8bcbc-4a49-4bc2-96be-4c812b8a441c}, !- Handle
  Roof Insulation [22],                   !- Name
  MediumRough,                            !- Roughness
  0.2358,                                 !- Thickness {m}
  0.049,                                  !- Conductivity {W/m-K}
  265,                                    !- Density {kg/m3}
  836.800000000001,                       !- Specific Heat {J/kg-K}
  0.9,                                    !- Thermal Absorptance
  0.7,                                    !- Solar Absorptance
  0.7;                                    !- Visible Absorptance

OS:Construction,
  {66fffc05-582d-4bed-8f0b-e3d76b0fda4d}, !- Handle
  ASHRAE 189.1-2009 ExtRoof Metal ClimateZone 6, !- Name
  ,                                       !- Surface Rendering Name
  {dabfc9fe-b741-475f-ad92-f0e4206b78de}, !- Layer 1
  {a3d9b720-6b86-4021-9ade-b1f9e50c827e}, !- Layer 2
  {3213aca0-fd26-4a69-af98-edaa841ac039}; !- Layer 3

OS:StandardsInformation:Construction,
  {312a593b-2844-4820-bc83-95a591ad6be4}, !- Handle
  {66fffc05-582d-4bed-8f0b-e3d76b0fda4d}, !- Construction Name
  ExteriorRoof,                           !- Intended Surface Type
  Metal;                                  !- Standards Construction Type

OS:Material,
  {a3d9b720-6b86-4021-9ade-b1f9e50c827e}, !- Handle
  Roof Insulation [25],                   !- Name
  MediumRough,                            !- Roughness
  0.263,                                  !- Thickness {m}
  0.049,                                  !- Conductivity {W/m-K}
  265,                                    !- Density {kg/m3}
  836.800000000001,                       !- Specific Heat {J/kg-K}
  0.9,                                    !- Thermal Absorptance
  0.7,                                    !- Solar Absorptance
  0.7;                                    !- Visible Absorptance

OS:Construction,
  {c1c03833-80d3-4f0f-9295-b4c4b5a67cfa}, !- Handle
  ASHRAE 189.1-2009 ExtRoof Metal ClimateZone 7-8, !- Name
  ,                                       !- Surface Rendering Name
  {dabfc9fe-b741-475f-ad92-f0e4206b78de}, !- Layer 1
  {2f08c203-3e10-4fbf-ba2c-d3c881a7a8b0}, !- Layer 2
  {3213aca0-fd26-4a69-af98-edaa841ac039}; !- Layer 3

OS:StandardsInformation:Construction,
  {351c6c95-76d9-4d43-bfb8-ad8d4bd193f7}, !- Handle
  {c1c03833-80d3-4f0f-9295-b4c4b5a67cfa}, !- Construction Name
  ExteriorRoof,                           !- Intended Surface Type
  Metal;                                  !- Standards Construction Type

OS:Material,
  {2f08c203-3e10-4fbf-ba2c-d3c881a7a8b0}, !- Handle
  Roof Insulation [27],                   !- Name
  MediumRough,                            !- Roughness
  0.297000000000001,                      !- Thickness {m}
  0.049,                                  !- Conductivity {W/m-K}
  265,                                    !- Density {kg/m3}
  836.800000000001,                       !- Specific Heat {J/kg-K}
  0.9,                                    !- Thermal Absorptance
  0.7,                                    !- Solar Absorptance
  0.7;                                    !- Visible Absorptance

OS:Construction,
  {954074e0-9103-449e-8bdc-cb1766dc0025}, !- Handle
  ASHRAE 189.1-2009 ExtWall Mass ClimateZone 1, !- Name
  ,                                       !- Surface Rendering Name
  {0b249b7e-d190-44b4-9dda-09f89ef663c9}, !- Layer 1
  {918780d8-6fa3-43bd-adf0-8366f888ffcd}, !- Layer 2
  {a34168a2-fe55-4778-946a-6f447b68a0fd}, !- Layer 3
  {7790e08f-25cc-44bf-826e-84ec3b0140bb}; !- Layer 4

OS:StandardsInformation:Construction,
  {3862a90e-2cfe-4115-a6ab-f130cb6a3b31}, !- Handle
  {954074e0-9103-449e-8bdc-cb1766dc0025}, !- Construction Name
  ExteriorWall,                           !- Intended Surface Type
  Mass;                                   !- Standards Construction Type

OS:Material,
  {0b249b7e-d190-44b4-9dda-09f89ef663c9}, !- Handle
  1IN Stucco,                             !- Name
  Smooth,                                 !- Roughness
  0.0253,                                 !- Thickness {m}
  0.691799999999999,                      !- Conductivity {W/m-K}
  1858,                                   !- Density {kg/m3}
  836.999999999999,                       !- Specific Heat {J/kg-K}
  0.9,                                    !- Thermal Absorptance
  0.92,                                   !- Solar Absorptance
  0.92;                                   !- Visible Absorptance

OS:Material,
  {918780d8-6fa3-43bd-adf0-8366f888ffcd}, !- Handle
  8IN Concrete HW,                        !- Name
  MediumRough,                            !- Roughness
  0.2033,                                 !- Thickness {m}
  1.72959999999999,                       !- Conductivity {W/m-K}
  2242.99999999999,                       !- Density {kg/m3}
  836.999999999999,                       !- Specific Heat {J/kg-K}
  0.9,                                    !- Thermal Absorptance
  0.65,                                   !- Solar Absorptance
  0.65;                                   !- Visible Absorptance

OS:Material,
  {a34168a2-fe55-4778-946a-6f447b68a0fd}, !- Handle
  Wall Insulation [31],                   !- Name
  MediumRough,                            !- Roughness
  0.0337000000000001,                     !- Thickness {m}
  0.0432,                                 !- Conductivity {W/m-K}
  91,                                     !- Density {kg/m3}
  836.999999999999,                       !- Specific Heat {J/kg-K}
  0.9,                                    !- Thermal Absorptance
  0.5,                                    !- Solar Absorptance
  0.5;                                    !- Visible Absorptance

OS:Construction,
  {a88cb98e-b648-443a-93ed-c173ca7c01fd}, !- Handle
  ASHRAE 189.1-2009 ExtWall Mass ClimateZone 2, !- Name
  ,                                       !- Surface Rendering Name
  {0b249b7e-d190-44b4-9dda-09f89ef663c9}, !- Layer 1
  {918780d8-6fa3-43bd-adf0-8366f888ffcd}, !- Layer 2
  {4815f8c4-841b-4065-ae4d-d74a03233c7b}, !- Layer 3
  {7790e08f-25cc-44bf-826e-84ec3b0140bb}; !- Layer 4

OS:StandardsInformation:Construction,
  {cfb72c89-596b-459a-bfe1-319ca8caf722}, !- Handle
  {a88cb98e-b648-443a-93ed-c173ca7c01fd}, !- Construction Name
  ExteriorWall,                           !- Intended Surface Type
  Mass;                                   !- Standards Construction Type

OS:Material,
  {4815f8c4-841b-4065-ae4d-d74a03233c7b}, !- Handle
  Wall Insulation [35],                   !- Name
  MediumRough,                            !- Roughness
  0.0452,                                 !- Thickness {m}
  0.0432,                                 !- Conductivity {W/m-K}
  91,                                     !- Density {kg/m3}
  836.999999999999,                       !- Specific Heat {J/kg-K}
  0.9,                                    !- Thermal Absorptance
  0.5,                                    !- Solar Absorptance
  0.5;                                    !- Visible Absorptance

OS:Construction,
  {8154378f-ddc3-4ca6-a66f-d25d7f422a21}, !- Handle
  ASHRAE 189.1-2009 ExtWall Mass ClimateZone 3, !- Name
  ,                                       !- Surface Rendering Name
  {0b249b7e-d190-44b4-9dda-09f89ef663c9}, !- Layer 1
  {918780d8-6fa3-43bd-adf0-8366f888ffcd}, !- Layer 2
  {93b2547b-ee51-4286-9b6e-a0352422b2ad}, !- Layer 3
  {7790e08f-25cc-44bf-826e-84ec3b0140bb}; !- Layer 4

OS:StandardsInformation:Construction,
  {c6e3c003-976a-4c62-acb5-76808ff458d0}, !- Handle
  {8154378f-ddc3-4ca6-a66f-d25d7f422a21}, !- Construction Name
  ExteriorWall,                           !- Intended Surface Type
  Mass;                                   !- Standards Construction Type

OS:Material,
  {93b2547b-ee51-4286-9b6e-a0352422b2ad}, !- Handle
  Wall Insulation [36],                   !- Name
  MediumRough,                            !- Roughness
  0.0565999999999999,                     !- Thickness {m}
  0.0432,                                 !- Conductivity {W/m-K}
  91,                                     !- Density {kg/m3}
  836.999999999999,                       !- Specific Heat {J/kg-K}
  0.9,                                    !- Thermal Absorptance
  0.5,                                    !- Solar Absorptance
  0.5;                                    !- Visible Absorptance

OS:Construction,
  {0dd6a4e3-b1d5-4e1f-af38-ce4025821be8}, !- Handle
  ASHRAE 189.1-2009 ExtWall Mass ClimateZone 4, !- Name
  ,                                       !- Surface Rendering Name
  {0b249b7e-d190-44b4-9dda-09f89ef663c9}, !- Layer 1
  {918780d8-6fa3-43bd-adf0-8366f888ffcd}, !- Layer 2
  {eaeb60f3-8000-4c3e-9882-dabfb99f112d}, !- Layer 3
  {7790e08f-25cc-44bf-826e-84ec3b0140bb}; !- Layer 4

OS:StandardsInformation:Construction,
  {c8dbe6ef-1981-466a-a86c-0434806ecf1a}, !- Handle
  {0dd6a4e3-b1d5-4e1f-af38-ce4025821be8}, !- Construction Name
  ExteriorWall,                           !- Intended Surface Type
  Mass;                                   !- Standards Construction Type

OS:Material,
  {eaeb60f3-8000-4c3e-9882-dabfb99f112d}, !- Handle
  Wall Insulation [37],                   !- Name
  MediumRough,                            !- Roughness
  0.0680999999999999,                     !- Thickness {m}
  0.0432,                                 !- Conductivity {W/m-K}
  91,                                     !- Density {kg/m3}
  836.999999999999,                       !- Specific Heat {J/kg-K}
  0.9,                                    !- Thermal Absorptance
  0.5,                                    !- Solar Absorptance
  0.5;                                    !- Visible Absorptance

OS:Construction,
  {80f6ebf1-5c56-48ed-bae0-3cffe3f7dbad}, !- Handle
  ASHRAE 189.1-2009 ExtWall Mass ClimateZone 5, !- Name
  ,                                       !- Surface Rendering Name
  {0b249b7e-d190-44b4-9dda-09f89ef663c9}, !- Layer 1
  {918780d8-6fa3-43bd-adf0-8366f888ffcd}, !- Layer 2
  {25a3db97-ec6a-4619-af42-bd102c0048cf}, !- Layer 3
  {7790e08f-25cc-44bf-826e-84ec3b0140bb}; !- Layer 4

OS:StandardsInformation:Construction,
  {449c6bae-a4e1-4ecf-a6a8-f2be76cd07a3}, !- Handle
  {80f6ebf1-5c56-48ed-bae0-3cffe3f7dbad}, !- Construction Name
  ExteriorWall,                           !- Intended Surface Type
  Mass;                                   !- Standards Construction Type

OS:Material,
  {25a3db97-ec6a-4619-af42-bd102c0048cf}, !- Handle
  Wall Insulation [40],                   !- Name
  MediumRough,                            !- Roughness
  0.0793999999999999,                     !- Thickness {m}
  0.0432,                                 !- Conductivity {W/m-K}
  91,                                     !- Density {kg/m3}
  836.999999999999,                       !- Specific Heat {J/kg-K}
  0.9,                                    !- Thermal Absorptance
  0.5,                                    !- Solar Absorptance
  0.5;                                    !- Visible Absorptance

OS:Construction,
  {89b169e0-fd8b-4e79-98ed-ad59b70b8962}, !- Handle
  ASHRAE 189.1-2009 ExtWall Mass ClimateZone 6, !- Name
  ,                                       !- Surface Rendering Name
  {0b249b7e-d190-44b4-9dda-09f89ef663c9}, !- Layer 1
  {918780d8-6fa3-43bd-adf0-8366f888ffcd}, !- Layer 2
  {5bcb20a8-c0e7-48c3-a283-35b5a7164d5a}, !- Layer 3
  {7790e08f-25cc-44bf-826e-84ec3b0140bb}; !- Layer 4

OS:StandardsInformation:Construction,
  {667ed41e-17fb-462b-aa77-ca0d574081b3}, !- Handle
  {89b169e0-fd8b-4e79-98ed-ad59b70b8962}, !- Construction Name
  ExteriorWall,                           !- Intended Surface Type
  Mass;                                   !- Standards Construction Type

OS:Material,
  {5bcb20a8-c0e7-48c3-a283-35b5a7164d5a}, !- Handle
  Wall Insulation [42],                   !- Name
  MediumRough,                            !- Roughness
  0.0913999999999999,                     !- Thickness {m}
  0.0432,                                 !- Conductivity {W/m-K}
  91,                                     !- Density {kg/m3}
  836.999999999999,                       !- Specific Heat {J/kg-K}
  0.9,                                    !- Thermal Absorptance
  0.5,                                    !- Solar Absorptance
  0.5;                                    !- Visible Absorptance

OS:Construction,
  {c391dd17-475c-4f1c-b7dd-c29403ddff26}, !- Handle
  ASHRAE 189.1-2009 ExtWall Mass ClimateZone 7-8, !- Name
  ,                                       !- Surface Rendering Name
  {0b249b7e-d190-44b4-9dda-09f89ef663c9}, !- Layer 1
  {918780d8-6fa3-43bd-adf0-8366f888ffcd}, !- Layer 2
  {0a52e394-5179-423d-9e49-208328d59ff0}, !- Layer 3
  {7790e08f-25cc-44bf-826e-84ec3b0140bb}; !- Layer 4

OS:StandardsInformation:Construction,
  {64a7c870-6a7d-449e-b0cc-25b419b68607}, !- Handle
  {c391dd17-475c-4f1c-b7dd-c29403ddff26}, !- Construction Name
  ExteriorWall,                           !- Intended Surface Type
  Mass;                                   !- Standards Construction Type

OS:Material,
  {0a52e394-5179-423d-9e49-208328d59ff0}, !- Handle
  Wall Insulation [44],                   !- Name
  MediumRough,                            !- Roughness
  0.1104,                                 !- Thickness {m}
  0.0432,                                 !- Conductivity {W/m-K}
  91,                                     !- Density {kg/m3}
  836.999999999999,                       !- Specific Heat {J/kg-K}
  0.9,                                    !- Thermal Absorptance
  0.5,                                    !- Solar Absorptance
  0.5;                                    !- Visible Absorptance

OS:Construction,
  {b0c37cf4-3881-4bb8-ab63-e891297e8055}, !- Handle
  ASHRAE 189.1-2009 ExtWall Mass ClimateZone alt-res 1, !- Name
  ,                                       !- Surface Rendering Name
  {0b249b7e-d190-44b4-9dda-09f89ef663c9}, !- Layer 1
  {918780d8-6fa3-43bd-adf0-8366f888ffcd}, !- Layer 2
  {4815f8c4-841b-4065-ae4d-d74a03233c7b}, !- Layer 3
  {7790e08f-25cc-44bf-826e-84ec3b0140bb}; !- Layer 4

OS:StandardsInformation:Construction,
  {c726fcb1-fab1-4034-a8c0-9d058880adce}, !- Handle
  {b0c37cf4-3881-4bb8-ab63-e891297e8055}, !- Construction Name
  ExteriorWall,                           !- Intended Surface Type
  Mass;                                   !- Standards Construction Type

OS:Construction,
  {1ef2bee7-21a0-4314-8cc3-e93d89c54d47}, !- Handle
  ASHRAE 189.1-2009 ExtWall Mass ClimateZone alt-res 2, !- Name
  ,                                       !- Surface Rendering Name
  {0b249b7e-d190-44b4-9dda-09f89ef663c9}, !- Layer 1
  {918780d8-6fa3-43bd-adf0-8366f888ffcd}, !- Layer 2
  {93b2547b-ee51-4286-9b6e-a0352422b2ad}, !- Layer 3
  {7790e08f-25cc-44bf-826e-84ec3b0140bb}; !- Layer 4

OS:StandardsInformation:Construction,
  {588b9325-0759-49e9-a81d-adde8d46ccf5}, !- Handle
  {1ef2bee7-21a0-4314-8cc3-e93d89c54d47}, !- Construction Name
  ExteriorWall,                           !- Intended Surface Type
  Mass;                                   !- Standards Construction Type

OS:Construction,
  {65a7351c-dcc5-485c-b1a5-c9b7e1bfe18a}, !- Handle
  ASHRAE 189.1-2009 ExtWall Mass ClimateZone alt-res 3, !- Name
  ,                                       !- Surface Rendering Name
  {0b249b7e-d190-44b4-9dda-09f89ef663c9}, !- Layer 1
  {918780d8-6fa3-43bd-adf0-8366f888ffcd}, !- Layer 2
  {eaeb60f3-8000-4c3e-9882-dabfb99f112d}, !- Layer 3
  {7790e08f-25cc-44bf-826e-84ec3b0140bb}; !- Layer 4

OS:StandardsInformation:Construction,
  {6ee8ca3b-3473-4a3d-9dee-94f9d33bcb7c}, !- Handle
  {65a7351c-dcc5-485c-b1a5-c9b7e1bfe18a}, !- Construction Name
  ExteriorWall,                           !- Intended Surface Type
  Mass;                                   !- Standards Construction Type

OS:Construction,
  {119ac291-c8c9-42f5-8c79-340a8139147e}, !- Handle
  ASHRAE 189.1-2009 ExtWall Mass ClimateZone alt-res 4, !- Name
  ,                                       !- Surface Rendering Name
  {0b249b7e-d190-44b4-9dda-09f89ef663c9}, !- Layer 1
  {918780d8-6fa3-43bd-adf0-8366f888ffcd}, !- Layer 2
  {25a3db97-ec6a-4619-af42-bd102c0048cf}, !- Layer 3
  {7790e08f-25cc-44bf-826e-84ec3b0140bb}; !- Layer 4

OS:StandardsInformation:Construction,
  {d2a04b10-7a18-481a-87c6-e3c95fc9f3bb}, !- Handle
  {119ac291-c8c9-42f5-8c79-340a8139147e}, !- Construction Name
  ExteriorWall,                           !- Intended Surface Type
  Mass;                                   !- Standards Construction Type

OS:Construction,
  {0f5abb14-82f8-48f9-9866-8cc1ff0913d6}, !- Handle
  ASHRAE 189.1-2009 ExtWall Mass ClimateZone alt-res 5, !- Name
  ,                                       !- Surface Rendering Name
  {0b249b7e-d190-44b4-9dda-09f89ef663c9}, !- Layer 1
  {918780d8-6fa3-43bd-adf0-8366f888ffcd}, !- Layer 2
  {5bcb20a8-c0e7-48c3-a283-35b5a7164d5a}, !- Layer 3
  {7790e08f-25cc-44bf-826e-84ec3b0140bb}; !- Layer 4

OS:StandardsInformation:Construction,
  {5e192e8a-3771-4d03-b24e-26b5edad284f}, !- Handle
  {0f5abb14-82f8-48f9-9866-8cc1ff0913d6}, !- Construction Name
  ExteriorWall,                           !- Intended Surface Type
  Mass;                                   !- Standards Construction Type

OS:Construction,
  {0eb7afcf-9b8a-4910-b147-dbc97a109e38}, !- Handle
  ASHRAE 189.1-2009 ExtWall Mass ClimateZone alt-res 6, !- Name
  ,                                       !- Surface Rendering Name
  {0b249b7e-d190-44b4-9dda-09f89ef663c9}, !- Layer 1
  {918780d8-6fa3-43bd-adf0-8366f888ffcd}, !- Layer 2
  {0a52e394-5179-423d-9e49-208328d59ff0}, !- Layer 3
  {7790e08f-25cc-44bf-826e-84ec3b0140bb}; !- Layer 4

OS:StandardsInformation:Construction,
  {a2da2955-6293-4cd3-bdc6-b4bf9f74b2d5}, !- Handle
  {0eb7afcf-9b8a-4910-b147-dbc97a109e38}, !- Construction Name
  ExteriorWall,                           !- Intended Surface Type
  Mass;                                   !- Standards Construction Type

OS:Construction,
  {ce7a9784-7149-4486-9d31-0baf7f1c380a}, !- Handle
  ASHRAE 189.1-2009 ExtWall Mass ClimateZone alt-res 7, !- Name
  ,                                       !- Surface Rendering Name
  {0b249b7e-d190-44b4-9dda-09f89ef663c9}, !- Layer 1
  {918780d8-6fa3-43bd-adf0-8366f888ffcd}, !- Layer 2
  {0a52e394-5179-423d-9e49-208328d59ff0}, !- Layer 3
  {7790e08f-25cc-44bf-826e-84ec3b0140bb}; !- Layer 4

OS:StandardsInformation:Construction,
  {43d76003-a5ba-4b83-9ee8-0f8fc8cf080d}, !- Handle
  {ce7a9784-7149-4486-9d31-0baf7f1c380a}, !- Construction Name
  ExteriorWall,                           !- Intended Surface Type