
OS:Version,
  {d5289bf1-9cfc-478c-93ac-97db0b5e8e6c}, !- Handle
  1.3.0;                                  !- Version Identifier

OS:Construction,
  {2be8ffdc-00cc-4477-a867-b8c307ab8162}, !- Handle
  ASHRAE 189.1-2009 AtticFloor ClimateZone 1-8, !- Name
  ,                                       !- Surface Rendering Name
  {160b633f-5f8f-4a66-8b13-6246153da196}, !- Layer 1
  {b502564f-29cd-42e1-8c78-b6407bb0cbca}, !- Layer 2
  {160b633f-5f8f-4a66-8b13-6246153da196}; !- Layer 3

OS:StandardsInformation:Construction,
  {adf46e00-064b-4a5c-9088-e1b4e1795351}, !- Handle
  {2be8ffdc-00cc-4477-a867-b8c307ab8162}, !- Construction Name
  AtticFloor,                             !- Intended Surface Type
  WoodFramed;                             !- Standards Construction Type

OS:Material,
  {160b633f-5f8f-4a66-8b13-6246153da196}, !- Handle
  1/2IN Gypsum,                           !- Name
  Smooth,                                 !- Roughness
  0.0127,                                 !- Thickness {m}
  0.16,                                   !- Conductivity {W/m-K}
  784.9,                                  !- Density {kg/m3}
  830.000000000001,                       !- Specific Heat {J/kg-K}
  0.9,                                    !- Thermal Absorptance
  0.92,                                   !- Solar Absorptance
  0.92;                                   !- Visible Absorptance

OS:Material,
  {b502564f-29cd-42e1-8c78-b6407bb0cbca}, !- Handle
  AtticFloor Insulation,                  !- Name
  MediumRough,                            !- Roughness
  0.2379,                                 !- Thickness {m}
  0.049,                                  !- Conductivity {W/m-K}
  265,                                    !- Density {kg/m3}
  836.800000000001,                       !- Specific Heat {J/kg-K}
  0.9,                                    !- Thermal Absorptance
  0.7,                                    !- Solar Absorptance
  0.7;                                    !- Visible Absorptance

OS:Construction,
  {676a998a-8aa3-4d5f-8b55-bd9296aefb36}, !- Handle
  ASHRAE 189.1-2009 ExtRoof IEAD ClimateZone 1, !- Name
  ,                                       !- Surface Rendering Name
  {04069377-f1e4-48cd-b46c-7ab4a70680e8}, !- Layer 1
  {b0f655ff-bbc2-423f-973b-56a14261def7}, !- Layer 2
  {ba859f7e-dd69-403f-a290-4dd7bce1e791}; !- Layer 3

OS:StandardsInformation:Construction,
  {90e01ef3-7960-4662-9da1-456349d2f188}, !- Handle
  {676a998a-8aa3-4d5f-8b55-bd9296aefb36}, !- Construction Name
  ExteriorRoof,                           !- Intended Surface Type
  IEAD;                                   !- Standards Construction Type

OS:Material,
  {04069377-f1e4-48cd-b46c-7ab4a70680e8}, !- Handle
  Roof Membrane,                          !- Name
  VeryRough,                              !- Roughness
  0.0095,                                 !- Thickness {m}
  0.16,                                   !- Conductivity {W/m-K}
  1121.29,                                !- Density {kg/m3}
  1460,                                   !- Specific Heat {J/kg-K}
  0.9,                                    !- Thermal Absorptance
  0.7,                                    !- Solar Absorptance
  0.7;                                    !- Visible Absorptance

OS:Material,
  {b0f655ff-bbc2-423f-973b-56a14261def7}, !- Handle
  Roof Insulation [18],                   !- Name
  MediumRough,                            !- Roughness
  0.1693,                                 !- Thickness {m}
  0.049,                                  !- Conductivity {W/m-K}
  265,                                    !- Density {kg/m3}
  836.800000000001,                       !- Specific Heat {J/kg-K}
  0.9,                                    !- Thermal Absorptance
  0.7,                                    !- Solar Absorptance
  0.7;                                    !- Visible Absorptance

OS:Material,
  {ba859f7e-dd69-403f-a290-4dd7bce1e791}, !- Handle
  Metal Decking,                          !- Name
  MediumSmooth,                           !- Roughness
  0.0015,                                 !- Thickness {m}
  45.006,                                 !- Conductivity {W/m-K}
  7680,                                   !- Density {kg/m3}
  418.4,                                  !- Specific Heat {J/kg-K}
  0.9,                                    !- Thermal Absorptance
  0.7,                                    !- Solar Absorptance
  0.3;                                    !- Visible Absorptance

OS:Construction,
  {cfcb2a32-d525-4765-abb6-f4a1dfe389ba}, !- Handle
  ASHRAE 189.1-2009 ExtRoof IEAD ClimateZone 2-5, !- Name
  ,                                       !- Surface Rendering Name
  {04069377-f1e4-48cd-b46c-7ab4a70680e8}, !- Layer 1
  {4b2725ba-c2de-4093-8fec-f2212f0b6c27}, !- Layer 2
  {ba859f7e-dd69-403f-a290-4dd7bce1e791}; !- Layer 3

OS:StandardsInformation:Construction,
  {fd2f3f52-e407-42ac-9619-d5599ac10c19}, !- Handle
  {cfcb2a32-d525-4765-abb6-f4a1dfe389ba}, !- Construction Name
  ExteriorRoof,                           !- Intended Surface Type
  IEAD;                                   !- Standards Construction Type

OS:Material,
  {4b2725ba-c2de-4093-8fec-f2212f0b6c27}, !- Handle
  Roof Insulation [21],                   !- Name
  MediumRough,                            !- Roughness
  0.2105,                                 !- Thickness {m}
  0.049,                                  !- Conductivity {W/m-K}
  265,                                    !- Density {kg/m3}
  836.800000000001,                       !- Specific Heat {J/kg-K}
  0.9,                                    !- Thermal Absorptance
  0.7,                                    !- Solar Absorptance
  0.7;                                    !- Visible Absorptance

OS:Construction,
  {8ce64530-8073-4ed1-9e20-3df69830c08f}, !- Handle
  ASHRAE 189.1-2009 ExtRoof IEAD ClimateZone 6, !- Name
  ,                                       !- Surface Rendering Name
  {04069377-f1e4-48cd-b46c-7ab4a70680e8}, !- Layer 1
  {e04ea5df-2b65-4279-a639-ab9552d02a43}, !- Layer 2
  {ba859f7e-dd69-403f-a290-4dd7bce1e791}; !- Layer 3

OS:StandardsInformation:Construction,
  {896d5f90-2bbf-4e83-a029-657ef87b683a}, !- Handle
  {8ce64530-8073-4ed1-9e20-3df69830c08f}, !- Construction Name
  ExteriorRoof,                           !- Intended Surface Type
  IEAD;                                   !- Standards Construction Type

OS:Material,
  {e04ea5df-2b65-4279-a639-ab9552d02a43}, !- Handle
  Roof Insulation [24],                   !- Name
  MediumRough,                            !- Roughness
  0.260100000000001,                      !- Thickness {m}
  0.049,                                  !- Conductivity {W/m-K}
  265,                                    !- Density {kg/m3}
  836.800000000001,                       !- Specific Heat {J/kg-K}
  0.9,                                    !- Thermal Absorptance
  0.7,                                    !- Solar Absorptance
  0.7;                                    !- Visible Absorptance

OS:Construction,
  {ee8430a6-d442-4d1d-9d17-d986b982378e}, !- Handle
  ASHRAE 189.1-2009 ExtRoof IEAD ClimateZone 7-8, !- Name
  ,                                       !- Surface Rendering Name
  {04069377-f1e4-48cd-b46c-7ab4a70680e8}, !- Layer 1
  {04e0976a-3a60-4470-b607-86e278291b51}, !- Layer 2
  {ba859f7e-dd69-403f-a290-4dd7bce1e791}; !- Layer 3

OS:StandardsInformation:Construction,
  {2f96b972-c9b6-4890-9d28-686a19458759}, !- Handle
  {ee8430a6-d442-4d1d-9d17-d986b982378e}, !- Construction Name
  ExteriorRoof,                           !- Intended Surface Type
  IEAD;                                   !- Standards Construction Type

OS:Material,
  {04e0976a-3a60-4470-b607-86e278291b51}, !- Handle
  Roof Insulation [26],                   !- Name
  MediumRough,                            !- Roughness
  0.2941,                                 !- Thickness {m}
  0.049,                                  !- Conductivity {W/m-K}
  265,                                    !- Density {kg/m3}
  836.800000000001,                       !- Specific Heat {J/kg-K}
  0.9,                                    !- Thermal Absorptance
  0.7,                                    !- Solar Absorptance
  0.7;                                    !- Visible Absorptance

OS:Construction,
  {30898e82-39f7-436c-b840-833f8554aa59}, !- Handle
  ASHRAE 189.1-2009 ExtRoof Metal ClimateZone 1, !- Name
  ,                                       !- Surface Rendering Name
  {471bae5d-78a5-4a38-947b-f119bff1fb77}, !- Layer 1
  {f2f69a8c-fe54-49f3-9d8e-6484246f415b}; !- Layer 2

OS:StandardsInformation:Construction,
  {5790e149-ac7f-49c7-a6f1-885e9f0f3085}, !- Handle
  {30898e82-39f7-436c-b840-833f8554aa59}, !- Construction Name
  ExteriorRoof,                           !- Intended Surface Type
  Metal;                                  !- Standards Construction Type

OS:Material,
  {471bae5d-78a5-4a38-947b-f119bff1fb77}, !- Handle
  Metal Roofing,                          !- Name
  MediumSmooth,                           !- Roughness
  0.0015,                                 !- Thickness {m}
  45.006,                                 !- Conductivity {W/m-K}
  7680,                                   !- Density {kg/m3}
  418.4,                                  !- Specific Heat {J/kg-K}
  0.9,                                    !- Thermal Absorptance
  0.3,                                    !- Solar Absorptance
  0.3;                                    !- Visible Absorptance

OS:Material,
  {f2f69a8c-fe54-49f3-9d8e-6484246f415b}, !- Handle
  Roof Insulation [19],                   !- Name
  MediumRough,                            !- Roughness
  0.1868,                                 !- Thickness {m}
  0.049,                                  !- Conductivity {W/m-K}
  265,                                    !- Density {kg/m3}
  836.800000000001,                       !- Specific Heat {J/kg-K}
  0.9,                                    !- Thermal Absorptance
  0.7,                                    !- Solar Absorptance
  0.7;                                    !- Visible Absorptance

OS:Construction,
  {ef3b5b04-1e1b-482b-8793-f479d2aa7407}, !- Handle
  ASHRAE 189.1-2009 ExtRoof Metal ClimateZone 2-5, !- Name
  ,                                       !- Surface Rendering Name
  {471bae5d-78a5-4a38-947b-f119bff1fb77}, !- Layer 1
  {f040d041-fb00-42d7-9266-7732c806f448}; !- Layer 2

OS:StandardsInformation:Construction,
  {6fbd551b-437b-4c1d-a574-9be729a29c40}, !- Handle
  {ef3b5b04-1e1b-482b-8793-f479d2aa7407}, !- Construction Name
  ExteriorRoof,                           !- Intended Surface Type
  Metal;                                  !- Standards Construction Type

OS:Material,
  {f040d041-fb00-42d7-9266-7732c806f448}, !- Handle
  Roof Insulation [22],                   !- Name
  MediumRough,                            !- Roughness
  0.2358,                                 !- Thickness {m}
  0.049,                                  !- Conductivity {W/m-K}
  265,                                    !- Density {kg/m3}
  836.800000000001,                       !- Specific Heat {J/kg-K}
  0.9,                                    !- Thermal Absorptance
  0.7,                                    !- Solar Absorptance
  0.7;                                    !- Visible Absorptance

OS:Construction,
  {86204864-ed68-4b22-84bb-dcbfb9aeb6e7}, !- Handle
  ASHRAE 189.1-2009 ExtRoof Metal ClimateZone 6, !- Name
  ,                                       !- Surface Rendering Name
  {471bae5d-78a5-4a38-947b-f119bff1fb77}, !- Layer 1
  {5be3c41e-0d47-4814-93f5-b61ea57dec29}; !- Layer 2

OS:StandardsInformation:Construction,
  {81ed1b10-211a-437d-a1d9-5fc21cff0cff}, !- Handle
  {86204864-ed68-4b22-84bb-dcbfb9aeb6e7}, !- Construction Name
  ExteriorRoof,                           !- Intended Surface Type
  Metal;                                  !- Standards Construction Type

OS:Material,
  {5be3c41e-0d47-4814-93f5-b61ea57dec29}, !- Handle
  Roof Insulation [25],                   !- Name
  MediumRough,                            !- Roughness
  0.263,                                  !- Thickness {m}
  0.049,                                  !- Conductivity {W/m-K}
  265,                                    !- Density {kg/m3}
  836.800000000001,                       !- Specific Heat {J/kg-K}
  0.9,                                    !- Thermal Absorptance
  0.7,                                    !- Solar Absorptance
  0.7;                                    !- Visible Absorptance

OS:Construction,
  {4fdd5e6e-39d7-4192-a7aa-a3630bb1c8ce}, !- Handle
  ASHRAE 189.1-2009 ExtRoof Metal ClimateZone 7-8, !- Name
  ,                                       !- Surface Rendering Name
  {471bae5d-78a5-4a38-947b-f119bff1fb77}, !- Layer 1
  {a67ced7c-1428-4a50-956a-9a8784cc2af7}; !- Layer 2

OS:StandardsInformation:Construction,
  {11c6ce3d-6600-406a-bdaf-3cb0dae40ee1}, !- Handle
  {4fdd5e6e-39d7-4192-a7aa-a3630bb1c8ce}, !- Construction Name
  ExteriorRoof,                           !- Intended Surface Type
  Metal;                                  !- Standards Construction Type

OS:Material,
  {a67ced7c-1428-4a50-956a-9a8784cc2af7}, !- Handle
  Roof Insulation [27],                   !- Name
  MediumRough,                            !- Roughness
  0.297000000000001,                      !- Thickness {m}
  0.049,                                  !- Conductivity {W/m-K}
  265,                                    !- Density {kg/m3}
  836.800000000001,                       !- Specific Heat {J/kg-K}
  0.9,                                    !- Thermal Absorptance
  0.7,                                    !- Solar Absorptance
  0.7;                                    !- Visible Absorptance

OS:Construction,
  {56cb19aa-1532-4b7b-9bdb-ba4a33ac1575}, !- Handle
  ASHRAE 189.1-2009 ExtWall Mass ClimateZone 1, !- Name
  ,                                       !- Surface Rendering Name
  {602ff04b-5055-4685-964f-3704ad123d8d}, !- Layer 1
  {dc8b9994-2f5b-48ca-b273-7af49a3243bb}, !- Layer 2
  {5fe362a2-e97d-46af-b207-95773b71d4f0}, !- Layer 3
  {160b633f-5f8f-4a66-8b13-6246153da196}; !- Layer 4

OS:StandardsInformation:Construction,
  {37e69511-1bfd-4d3b-85d5-c904077b389a}, !- Handle
  {56cb19aa-1532-4b7b-9bdb-ba4a33ac1575}, !- Construction Name
  ExteriorWall,                           !- Intended Surface Type
  Mass;                                   !- Standards Construction Type

OS:Material,
  {602ff04b-5055-4685-964f-3704ad123d8d}, !- Handle
  1IN Stucco,                             !- Name
  Smooth,                                 !- Roughness
  0.0253,                                 !- Thickness {m}
  0.691799999999999,                      !- Conductivity {W/m-K}
  1858,                                   !- Density {kg/m3}
  836.999999999999,                       !- Specific Heat {J/kg-K}
  0.9,                                    !- Thermal Absorptance
  0.92,                                   !- Solar Absorptance
  0.92;                                   !- Visible Absorptance

OS:Material,
  {dc8b9994-2f5b-48ca-b273-7af49a3243bb}, !- Handle
  8IN Concrete HW,                        !- Name
  MediumRough,                            !- Roughness
  0.2033,                                 !- Thickness {m}
  1.72959999999999,                       !- Conductivity {W/m-K}
  2242.99999999999,                       !- Density {kg/m3}
  836.999999999999,                       !- Specific Heat {J/kg-K}
  0.9,                                    !- Thermal Absorptance
  0.65,                                   !- Solar Absorptance
  0.65;                                   !- Visible Absorptance

OS:Material,
  {5fe362a2-e97d-46af-b207-95773b71d4f0}, !- Handle
  Wall Insulation [31],                   !- Name
  MediumRough,                            !- Roughness
  0.0337000000000001,                     !- Thickness {m}
  0.0432,                                 !- Conductivity {W/m-K}
  91,                                     !- Density {kg/m3}
  836.999999999999,                       !- Specific Heat {J/kg-K}
  0.9,                                    !- Thermal Absorptance
  0.5,                                    !- Solar Absorptance
  0.5;                                    !- Visible Absorptance

OS:Construction,
  {25170ff3-8ebf-4407-9d85-72ab0c5f6a4c}, !- Handle
  ASHRAE 189.1-2009 ExtWall Mass ClimateZone 2, !- Name
  ,                                       !- Surface Rendering Name
  {602ff04b-5055-4685-964f-3704ad123d8d}, !- Layer 1
  {dc8b9994-2f5b-48ca-b273-7af49a3243bb}, !- Layer 2
  {62f84a61-fc3d-4e26-85b6-668db730af57}, !- Layer 3
  {160b633f-5f8f-4a66-8b13-6246153da196}; !- Layer 4

OS:StandardsInformation:Construction,
  {106cce1a-8a0d-4413-b943-8ecff98b7693}, !- Handle
  {25170ff3-8ebf-4407-9d85-72ab0c5f6a4c}, !- Construction Name
  ExteriorWall,                           !- Intended Surface Type
  Mass;                                   !- Standards Construction Type

OS:Material,
  {62f84a61-fc3d-4e26-85b6-668db730af57}, !- Handle
  Wall Insulation [35],                   !- Name
  MediumRough,                            !- Roughness
  0.0452,                                 !- Thickness {m}
  0.0432,                                 !- Conductivity {W/m-K}
  91,                                     !- Density {kg/m3}
  836.999999999999,                       !- Specific Heat {J/kg-K}
  0.9,                                    !- Thermal Absorptance
  0.5,                                    !- Solar Absorptance
  0.5;                                    !- Visible Absorptance

OS:Construction,
  {86476116-bf45-40b6-82d5-4572ad2ca35b}, !- Handle
  ASHRAE 189.1-2009 ExtWall Mass ClimateZone 3, !- Name
  ,                                       !- Surface Rendering Name
  {602ff04b-5055-4685-964f-3704ad123d8d}, !- Layer 1
  {dc8b9994-2f5b-48ca-b273-7af49a3243bb}, !- Layer 2
  {3a89037b-3cd6-4f73-a595-61982a66489d}, !- Layer 3
  {160b633f-5f8f-4a66-8b13-6246153da196}; !- Layer 4

OS:StandardsInformation:Construction,
  {d87063b2-2bf0-4553-adcf-8269b7f04ce6}, !- Handle
  {86476116-bf45-40b6-82d5-4572ad2ca35b}, !- Construction Name
  ExteriorWall,                           !- Intended Surface Type
  Mass;                                   !- Standards Construction Type

OS:Material,
  {3a89037b-3cd6-4f73-a595-61982a66489d}, !- Handle
  Wall Insulation [36],                   !- Name
  MediumRough,                            !- Roughness
  0.0565999999999999,                     !- Thickness {m}
  0.0432,                                 !- Conductivity {W/m-K}
  91,                                     !- Density {kg/m3}
  836.999999999999,                       !- Specific Heat {J/kg-K}
  0.9,                                    !- Thermal Absorptance
  0.5,                                    !- Solar Absorptance
  0.5;                                    !- Visible Absorptance

OS:Construction,
  {756b3a46-a33e-45f3-8e71-143389c55a65}, !- Handle
  ASHRAE 189.1-2009 ExtWall Mass ClimateZone 4, !- Name
  ,                                       !- Surface Rendering Name
  {602ff04b-5055-4685-964f-3704ad123d8d}, !- Layer 1
  {dc8b9994-2f5b-48ca-b273-7af49a3243bb}, !- Layer 2
  {395f5df6-cf13-4ce1-9b4c-ba30e3839b29}, !- Layer 3
  {160b633f-5f8f-4a66-8b13-6246153da196}; !- Layer 4

OS:StandardsInformation:Construction,
  {21081c5b-d8c7-4395-ab01-9b31a2b801c6}, !- Handle
  {756b3a46-a33e-45f3-8e71-143389c55a65}, !- Construction Name
  ExteriorWall,                           !- Intended Surface Type
  Mass;                                   !- Standards Construction Type

OS:Material,
  {395f5df6-cf13-4ce1-9b4c-ba30e3839b29}, !- Handle
  Wall Insulation [37],                   !- Name
  MediumRough,                            !- Roughness
  0.0680999999999999,                     !- Thickness {m}
  0.0432,                                 !- Conductivity {W/m-K}
  91,                                     !- Density {kg/m3}
  836.999999999999,                       !- Specific Heat {J/kg-K}
  0.9,                                    !- Thermal Absorptance
  0.5,                                    !- Solar Absorptance
  0.5;                                    !- Visible Absorptance

OS:Construction,
  {7d7006b0-4537-4a21-9da2-588f8feb84d4}, !- Handle
  ASHRAE 189.1-2009 ExtWall Mass ClimateZone 5, !- Name
  ,                                       !- Surface Rendering Name
  {602ff04b-5055-4685-964f-3704ad123d8d}, !- Layer 1
  {dc8b9994-2f5b-48ca-b273-7af49a3243bb}, !- Layer 2
  {05ca7430-bd10-4d42-8b18-d3376b104453}, !- Layer 3
  {160b633f-5f8f-4a66-8b13-6246153da196}; !- Layer 4

OS:StandardsInformation:Construction,
  {ceac225d-50ba-43d8-95b2-ee92b15e487a}, !- Handle
  {7d7006b0-4537-4a21-9da2-588f8feb84d4}, !- Construction Name
  ExteriorWall,                           !- Intended Surface Type
  Mass;                                   !- Standards Construction Type

OS:Material,
  {05ca7430-bd10-4d42-8b18-d3376b104453}, !- Handle
  Wall Insulation [40],                   !- Name
  MediumRough,                            !- Roughness
  0.0793999999999999,                     !- Thickness {m}
  0.0432,                                 !- Conductivity {W/m-K}
  91,                                     !- Density {kg/m3}
  836.999999999999,                       !- Specific Heat {J/kg-K}
  0.9,                                    !- Thermal Absorptance
  0.5,                                    !- Solar Absorptance
  0.5;                                    !- Visible Absorptance

OS:Construction,
  {888a4cd9-8c21-46a4-847f-eb8f48da6f1e}, !- Handle
  ASHRAE 189.1-2009 ExtWall Mass ClimateZone 6, !- Name
  ,                                       !- Surface Rendering Name
  {602ff04b-5055-4685-964f-3704ad123d8d}, !- Layer 1
  {dc8b9994-2f5b-48ca-b273-7af49a3243bb}, !- Layer 2
  {864e4cc7-f2ae-4495-80f5-13033efc97df}, !- Layer 3
  {160b633f-5f8f-4a66-8b13-6246153da196}; !- Layer 4

OS:StandardsInformation:Construction,
  {e43af89d-da28-441c-8a26-960b00fa17f1}, !- Handle
  {888a4cd9-8c21-46a4-847f-eb8f48da6f1e}, !- Construction Name
  ExteriorWall,                           !- Intended Surface Type
  Mass;                                   !- Standards Construction Type

OS:Material,
  {864e4cc7-f2ae-4495-80f5-13033efc97df}, !- Handle
  Wall Insulation [42],                   !- Name
  MediumRough,                            !- Roughness
  0.0913999999999999,                     !- Thickness {m}
  0.0432,                                 !- Conductivity {W/m-K}
  91,                                     !- Density {kg/m3}
  836.999999999999,                       !- Specific Heat {J/kg-K}
  0.9,                                    !- Thermal Absorptance
  0.5,                                    !- Solar Absorptance
  0.5;                                    !- Visible Absorptance

OS:Construction,
  {cb4f3d06-e48c-4031-a924-80c07be3359d}, !- Handle
  ASHRAE 189.1-2009 ExtWall Mass ClimateZone 7-8, !- Name
  ,                                       !- Surface Rendering Name
  {602ff04b-5055-4685-964f-3704ad123d8d}, !- Layer 1
  {dc8b9994-2f5b-48ca-b273-7af49a3243bb}, !- Layer 2
  {ed6b72d3-576a-4222-9900-b14f8bab42ea}, !- Layer 3
  {160b633f-5f8f-4a66-8b13-6246153da196}; !- Layer 4

OS:StandardsInformation:Construction,
  {2a729474-3503-4e38-9803-21a1fbd78a6b}, !- Handle
  {cb4f3d06-e48c-4031-a924-80c07be3359d}, !- Construction Name
  ExteriorWall,                           !- Intended Surface Type
  Mass;                                   !- Standards Construction Type

OS:Material,
  {ed6b72d3-576a-4222-9900-b14f8bab42ea}, !- Handle
  Wall Insulation [44],                   !- Name
  MediumRough,                            !- Roughness
  0.1104,                                 !- Thickness {m}
  0.0432,                                 !- Conductivity {W/m-K}
  91,                                     !- Density {kg/m3}
  836.999999999999,                       !- Specific Heat {J/kg-K}
  0.9,                                    !- Thermal Absorptance
  0.5,                                    !- Solar Absorptance
  0.5;                                    !- Visible Absorptance

OS:Construction,
  {bd494570-2fc1-4f0e-8f94-050d5a8e7448}, !- Handle
  ASHRAE 189.1-2009 ExtWall Mass ClimateZone alt-res 1, !- Name
  ,                                       !- Surface Rendering Name
  {602ff04b-5055-4685-964f-3704ad123d8d}, !- Layer 1
  {dc8b9994-2f5b-48ca-b273-7af49a3243bb}, !- Layer 2
  {62f84a61-fc3d-4e26-85b6-668db730af57}, !- Layer 3
  {160b633f-5f8f-4a66-8b13-6246153da196}; !- Layer 4

OS:StandardsInformation:Construction,
  {cbab3e61-5d37-4645-ab74-e62a4799903c}, !- Handle
  {bd494570-2fc1-4f0e-8f94-050d5a8e7448}, !- Construction Name
  ExteriorWall,                           !- Intended Surface Type
  Mass;                                   !- Standards Construction Type

OS:Construction,
  {69ab6ab5-58a2-4e2c-ae0b-8b158df1ea19}, !- Handle
  ASHRAE 189.1-2009 ExtWall Mass ClimateZone alt-res 2, !- Name
  ,                                       !- Surface Rendering Name
  {602ff04b-5055-4685-964f-3704ad123d8d}, !- Layer 1
  {dc8b9994-2f5b-48ca-b273-7af49a3243bb}, !- Layer 2
  {3a89037b-3cd6-4f73-a595-61982a66489d}, !- Layer 3
  {160b633f-5f8f-4a66-8b13-6246153da196}; !- Layer 4

OS:StandardsInformation:Construction,
  {29b99542-5bc2-457c-a08e-477147d1ce64}, !- Handle
  {69ab6ab5-58a2-4e2c-ae0b-8b158df1ea19}, !- Construction Name
  ExteriorWall,                           !- Intended Surface Type
  Mass;                                   !- Standards Construction Type

OS:Construction,
  {a5aa853b-1cbf-4f35-b635-9da360160234}, !- Handle
  ASHRAE 189.1-2009 ExtWall Mass ClimateZone alt-res 3, !- Name
  ,                                       !- Surface Rendering Name
  {602ff04b-5055-4685-964f-3704ad123d8d}, !- Layer 1
  {dc8b9994-2f5b-48ca-b273-7af49a3243bb}, !- Layer 2
  {395f5df6-cf13-4ce1-9b4c-ba30e3839b29}, !- Layer 3
  {160b633f-5f8f-4a66-8b13-6246153da196}; !- Layer 4

OS:StandardsInformation:Construction,
  {19183e56-143f-4748-9745-9527bc4756ae}, !- Handle
  {a5aa853b-1cbf-4f35-b635-9da360160234}, !- Construction Name
  ExteriorWall,                           !- Intended Surface Type
  Mass;                                   !- Standards Construction Type

OS:Construction,
  {41af4033-1b19-4def-8a28-5049e7f7772f}, !- Handle
  ASHRAE 189.1-2009 ExtWall Mass ClimateZone alt-res 4, !- Name
  ,                                       !- Surface Rendering Name
  {602ff04b-5055-4685-964f-3704ad123d8d}, !- Layer 1
  {dc8b9994-2f5b-48ca-b273-7af49a3243bb}, !- Layer 2
  {05ca7430-bd10-4d42-8b18-d3376b104453}, !- Layer 3
  {160b633f-5f8f-4a66-8b13-6246153da196}; !- Layer 4

OS:StandardsInformation:Construction,
  {88b7f52d-cf15-42e4-87a4-cca7161eb876}, !- Handle
  {41af4033-1b19-4def-8a28-5049e7f7772f}, !- Construction Name
  ExteriorWall,                           !- Intended Surface Type
  Mass;                                   !- Standards Construction Type

OS:Construction,
  {eece6a1f-1f62-4d2a-8f42-3b15dea01ffe}, !- Handle
  ASHRAE 189.1-2009 ExtWall Mass ClimateZone alt-res 5, !- Name
  ,                                       !- Surface Rendering Name
  {602ff04b-5055-4685-964f-3704ad123d8d}, !- Layer 1
  {dc8b9994-2f5b-48ca-b273-7af49a3243bb}, !- Layer 2
  {864e4cc7-f2ae-4495-80f5-13033efc97df}, !- Layer 3
  {160b633f-5f8f-4a66-8b13-6246153da196}; !- Layer 4

OS:StandardsInformation:Construction,
  {4dbeb91d-35e6-48c4-864f-528453839578}, !- Handle
  {eece6a1f-1f62-4d2a-8f42-3b15dea01ffe}, !- Construction Name
  ExteriorWall,                           !- Intended Surface Type
  Mass;                                   !- Standards Construction Type

OS:Construction,
  {1716aeb0-8cf8-42b5-9a3f-8f1bbadd712a}, !- Handle
  ASHRAE 189.1-2009 ExtWall Mass ClimateZone alt-res 6, !- Name
  ,                                       !- Surface Rendering Name
  {602ff04b-5055-4685-964f-3704ad123d8d}, !- Layer 1
  {dc8b9994-2f5b-48ca-b273-7af49a3243bb}, !- Layer 2
  {ed6b72d3-576a-4222-9900-b14f8bab42ea}, !- Layer 3
  {160b633f-5f8f-4a66-8b13-6246153da196}; !- Layer 4

OS:StandardsInformation:Construction,
  {f123fbb1-cc37-43a7-a7fa-f9d181bce732}, !- Handle
  {1716aeb0-8cf8-42b5-9a3f-8f1bbadd712a}, !- Construction Name
  ExteriorWall,                           !- Intended Surface Type
  Mass;                                   !- Standards Construction Type

OS:Construction,
  {b3b1b722-0d9a-440d-a622-4ecddffadeab}, !- Handle
  ASHRAE 189.1-2009 ExtWall Mass ClimateZone alt-res 7, !- Name
  ,                                       !- Surface Rendering Name
  {602ff04b-5055-4685-964f-3704ad123d8d}, !- Layer 1
  {dc8b9994-2f5b-48ca-b273-7af49a3243bb}, !- Layer 2
  {ed6b72d3-576a-4222-9900-b14f8bab42ea}, !- Layer 3
  {160b633f-5f8f-4a66-8b13-6246153da196}; !- Layer 4

OS:StandardsInformation:Construction,
  {c5e5160a-5045-4122-8e7c-9651698a8c17}, !- Handle
  {b3b1b722-0d9a-440d-a622-4ecddffadeab}, !- Construction Name
  ExteriorWall,                           !- Intended Surface Type
  Mass;                                   !- Standards Construction Type

OS:Construction,
  {e54a4fd4-38c4-4832-a092-fbd004af8cf9}, !- Handle
  ASHRAE 189.1-2009 ExtWall Mass ClimateZone alt-res 8, !- Name