
OS:Version,
  {2a2c8ff3-ea85-40ad-ace6-a3294400a5bd}, !- Handle
  1.4.0;                                  !- Version Identifier

OS:Construction,
  {8c5422c1-f7f0-4769-951e-d7a980bacfce}, !- Handle
  ASHRAE 189.1-2009 AtticFloor ClimateZone 1-8, !- Name
  ,                                       !- Surface Rendering Name
  {d8b47f06-a69e-4f0e-bb59-4f9438ce83a0}, !- Layer 1
  {8b4da12c-8d39-4e0e-9b92-e238f1ace9c2}, !- Layer 2
  {d8b47f06-a69e-4f0e-bb59-4f9438ce83a0}; !- Layer 3

OS:StandardsInformation:Construction,
  {3d933d95-ca25-4728-99b4-fe56b92a7938}, !- Handle
  {8c5422c1-f7f0-4769-951e-d7a980bacfce}, !- Construction Name
  AtticFloor,                             !- Intended Surface Type
  WoodFramed;                             !- Standards Construction Type

OS:Material,
  {d8b47f06-a69e-4f0e-bb59-4f9438ce83a0}, !- Handle
  1/2IN Gypsum,                           !- Name
  Smooth,                                 !- Roughness
  0.0127,                                 !- Thickness {m}
  0.16,                                   !- Conductivity {W/m-K}
  784.9,                                  !- Density {kg/m3}
  830.000000000001,                       !- Specific Heat {J/kg-K}
  0.9,                                    !- Thermal Absorptance
  0.4,                                    !- Solar Absorptance
  0.4;                                    !- Visible Absorptance

OS:Material,
  {8b4da12c-8d39-4e0e-9b92-e238f1ace9c2}, !- Handle
  AtticFloor Insulation,                  !- Name
  MediumRough,                            !- Roughness
  0.2379,                                 !- Thickness {m}
  0.049,                                  !- Conductivity {W/m-K}
  265,                                    !- Density {kg/m3}
  836.800000000001,                       !- Specific Heat {J/kg-K}
  0.9,                                    !- Thermal Absorptance
  0.7,                                    !- Solar Absorptance
  0.7;                                    !- Visible Absorptance

OS:Construction,
  {b01f8558-6152-4180-bba0-f250e76d273d}, !- Handle
  ASHRAE 189.1-2009 ExtRoof IEAD ClimateZone 1, !- Name
  ,                                       !- Surface Rendering Name
  {cd628f98-8b3a-4c1c-8503-569dbd351154}, !- Layer 1
  {b839fb3f-9a90-4bd6-b95d-275815594e14}, !- Layer 2
  {dc24a625-df52-4445-926a-d4d17866bf3a}; !- Layer 3

OS:StandardsInformation:Construction,
  {e51af414-11fa-4fdd-818e-c70c57dae281}, !- Handle
  {b01f8558-6152-4180-bba0-f250e76d273d}, !- Construction Name
  ExteriorRoof,                           !- Intended Surface Type
  IEAD;                                   !- Standards Construction Type

OS:Material,
  {cd628f98-8b3a-4c1c-8503-569dbd351154}, !- Handle
  Roof Membrane,                          !- Name
  VeryRough,                              !- Roughness
  0.0095,                                 !- Thickness {m}
  0.16,                                   !- Conductivity {W/m-K}
  1121.29,                                !- Density {kg/m3}
  1460,                                   !- Specific Heat {J/kg-K}
  0.9,                                    !- Thermal Absorptance
  0.7,                                    !- Solar Absorptance
  0.7;                                    !- Visible Absorptance

OS:Material,
  {b839fb3f-9a90-4bd6-b95d-275815594e14}, !- Handle
  Roof Insulation [18],                   !- Name
  MediumRough,                            !- Roughness
  0.1693,                                 !- Thickness {m}
  0.049,                                  !- Conductivity {W/m-K}
  265,                                    !- Density {kg/m3}
  836.800000000001,                       !- Specific Heat {J/kg-K}
  0.9,                                    !- Thermal Absorptance
  0.7,                                    !- Solar Absorptance
  0.7;                                    !- Visible Absorptance

OS:Material,
  {dc24a625-df52-4445-926a-d4d17866bf3a}, !- Handle
  Metal Decking,                          !- Name
  MediumSmooth,                           !- Roughness
  0.0015,                                 !- Thickness {m}
  45.006,                                 !- Conductivity {W/m-K}
  7680,                                   !- Density {kg/m3}
  418.4,                                  !- Specific Heat {J/kg-K}
  0.9,                                    !- Thermal Absorptance
  0.6,                                    !- Solar Absorptance
  0.6;                                    !- Visible Absorptance

OS:Construction,
  {1ae835a3-1c69-4073-8f91-77beb5f5ba2c}, !- Handle
  ASHRAE 189.1-2009 ExtRoof IEAD ClimateZone 2-5, !- Name
  ,                                       !- Surface Rendering Name
  {cd628f98-8b3a-4c1c-8503-569dbd351154}, !- Layer 1
  {0509a64d-13bc-43cd-80cb-a47b2b030dbc}, !- Layer 2
  {dc24a625-df52-4445-926a-d4d17866bf3a}; !- Layer 3

OS:StandardsInformation:Construction,
  {91c72f87-8e50-435c-b29b-1c5a6b90dc0a}, !- Handle
  {1ae835a3-1c69-4073-8f91-77beb5f5ba2c}, !- Construction Name
  ExteriorRoof,                           !- Intended Surface Type
  IEAD;                                   !- Standards Construction Type

OS:Material,
  {0509a64d-13bc-43cd-80cb-a47b2b030dbc}, !- Handle
  Roof Insulation [21],                   !- Name
  MediumRough,                            !- Roughness
  0.2105,                                 !- Thickness {m}
  0.049,                                  !- Conductivity {W/m-K}
  265,                                    !- Density {kg/m3}
  836.800000000001,                       !- Specific Heat {J/kg-K}
  0.9,                                    !- Thermal Absorptance
  0.7,                                    !- Solar Absorptance
  0.7;                                    !- Visible Absorptance

OS:Construction,
  {569dce5f-0e43-42c6-a1a2-cace4abba3ab}, !- Handle
  ASHRAE 189.1-2009 ExtRoof IEAD ClimateZone 6, !- Name
  ,                                       !- Surface Rendering Name
  {cd628f98-8b3a-4c1c-8503-569dbd351154}, !- Layer 1
  {accda4d4-110d-424d-ba3f-a4481565ff25}, !- Layer 2
  {dc24a625-df52-4445-926a-d4d17866bf3a}; !- Layer 3

OS:StandardsInformation:Construction,
  {b16bbbc5-81f7-4ea5-b10b-e886fa22e2f7}, !- Handle
  {569dce5f-0e43-42c6-a1a2-cace4abba3ab}, !- Construction Name
  ExteriorRoof,                           !- Intended Surface Type
  IEAD;                                   !- Standards Construction Type

OS:Material,
  {accda4d4-110d-424d-ba3f-a4481565ff25}, !- Handle
  Roof Insulation [24],                   !- Name
  MediumRough,                            !- Roughness
  0.260100000000001,                      !- Thickness {m}
  0.049,                                  !- Conductivity {W/m-K}
  265,                                    !- Density {kg/m3}
  836.800000000001,                       !- Specific Heat {J/kg-K}
  0.9,                                    !- Thermal Absorptance
  0.7,                                    !- Solar Absorptance
  0.7;                                    !- Visible Absorptance

OS:Construction,
  {c649afb5-5632-4aeb-b681-96ee55dc37be}, !- Handle
  ASHRAE 189.1-2009 ExtRoof IEAD ClimateZone 7-8, !- Name
  ,                                       !- Surface Rendering Name
  {cd628f98-8b3a-4c1c-8503-569dbd351154}, !- Layer 1
  {2f690d06-9a2a-454a-90a4-aca4a1f791c0}, !- Layer 2
  {dc24a625-df52-4445-926a-d4d17866bf3a}; !- Layer 3

OS:StandardsInformation:Construction,
  {5a5e783e-9f04-4849-a9ff-8b6eb155bc92}, !- Handle
  {c649afb5-5632-4aeb-b681-96ee55dc37be}, !- Construction Name
  ExteriorRoof,                           !- Intended Surface Type
  IEAD;                                   !- Standards Construction Type

OS:Material,
  {2f690d06-9a2a-454a-90a4-aca4a1f791c0}, !- Handle
  Roof Insulation [26],                   !- Name
  MediumRough,                            !- Roughness
  0.2941,                                 !- Thickness {m}
  0.049,                                  !- Conductivity {W/m-K}
  265,                                    !- Density {kg/m3}
  836.800000000001,                       !- Specific Heat {J/kg-K}
  0.9,                                    !- Thermal Absorptance
  0.7,                                    !- Solar Absorptance
  0.7;                                    !- Visible Absorptance

OS:Construction,
  {be4aaf62-80cd-4ac7-af3f-d0ff71198c8d}, !- Handle
  ASHRAE 189.1-2009 ExtRoof Metal ClimateZone 1, !- Name
  ,                                       !- Surface Rendering Name
  {da966d6e-db1d-42a6-b855-ebc14f247f3a}, !- Layer 1
  {db58bbdc-36a6-4a0f-b596-f1007407f5eb}, !- Layer 2
  {dc24a625-df52-4445-926a-d4d17866bf3a}; !- Layer 3

OS:StandardsInformation:Construction,
  {9a1a46f3-7efd-4e2d-b486-3d6ab314f8ca}, !- Handle
  {be4aaf62-80cd-4ac7-af3f-d0ff71198c8d}, !- Construction Name
  ExteriorRoof,                           !- Intended Surface Type
  Metal;                                  !- Standards Construction Type

OS:Material,
  {da966d6e-db1d-42a6-b855-ebc14f247f3a}, !- Handle
  Metal Roofing,                          !- Name
  MediumSmooth,                           !- Roughness
  0.0015,                                 !- Thickness {m}
  45.006,                                 !- Conductivity {W/m-K}
  7680,                                   !- Density {kg/m3}
  418.4,                                  !- Specific Heat {J/kg-K}
  0.9,                                    !- Thermal Absorptance
  0.6,                                    !- Solar Absorptance
  0.6;                                    !- Visible Absorptance

OS:Material,
  {db58bbdc-36a6-4a0f-b596-f1007407f5eb}, !- Handle
  Roof Insulation [19],                   !- Name
  MediumRough,                            !- Roughness
  0.1868,                                 !- Thickness {m}
  0.049,                                  !- Conductivity {W/m-K}
  265,                                    !- Density {kg/m3}
  836.800000000001,                       !- Specific Heat {J/kg-K}
  0.9,                                    !- Thermal Absorptance
  0.7,                                    !- Solar Absorptance
  0.7;                                    !- Visible Absorptance

OS:Construction,
  {6cbfee3e-0344-409e-847d-8b7381150d27}, !- Handle
  ASHRAE 189.1-2009 ExtRoof Metal ClimateZone 2-5, !- Name
  ,                                       !- Surface Rendering Name
  {da966d6e-db1d-42a6-b855-ebc14f247f3a}, !- Layer 1
  {8a889804-467f-4b3f-aae0-1b41137064c9}, !- Layer 2
  {dc24a625-df52-4445-926a-d4d17866bf3a}; !- Layer 3

OS:StandardsInformation:Construction,
  {6aeb2a54-5627-4d03-a34e-e4bfccdb8f1e}, !- Handle
  {6cbfee3e-0344-409e-847d-8b7381150d27}, !- Construction Name
  ExteriorRoof,                           !- Intended Surface Type
  Metal;                                  !- Standards Construction Type

OS:Material,
  {8a889804-467f-4b3f-aae0-1b41137064c9}, !- Handle
  Roof Insulation [22],                   !- Name
  MediumRough,                            !- Roughness
  0.2358,                                 !- Thickness {m}
  0.049,                                  !- Conductivity {W/m-K}
  265,                                    !- Density {kg/m3}
  836.800000000001,                       !- Specific Heat {J/kg-K}
  0.9,                                    !- Thermal Absorptance
  0.7,                                    !- Solar Absorptance
  0.7;                                    !- Visible Absorptance

OS:Construction,
  {4a017ba6-1279-4b03-8424-75355f1fed25}, !- Handle
  ASHRAE 189.1-2009 ExtRoof Metal ClimateZone 6, !- Name
  ,                                       !- Surface Rendering Name
  {da966d6e-db1d-42a6-b855-ebc14f247f3a}, !- Layer 1
  {cc5608e2-d30d-44e5-90b8-3a69888ffac4}, !- Layer 2
  {dc24a625-df52-4445-926a-d4d17866bf3a}; !- Layer 3

OS:StandardsInformation:Construction,
  {16c67039-ac2c-40ac-9fd2-cdaecf7b8918}, !- Handle
  {4a017ba6-1279-4b03-8424-75355f1fed25}, !- Construction Name
  ExteriorRoof,                           !- Intended Surface Type
  Metal;                                  !- Standards Construction Type

OS:Material,
  {cc5608e2-d30d-44e5-90b8-3a69888ffac4}, !- Handle
  Roof Insulation [25],                   !- Name
  MediumRough,                            !- Roughness
  0.263,                                  !- Thickness {m}
  0.049,                                  !- Conductivity {W/m-K}
  265,                                    !- Density {kg/m3}
  836.800000000001,                       !- Specific Heat {J/kg-K}
  0.9,                                    !- Thermal Absorptance
  0.7,                                    !- Solar Absorptance
  0.7;                                    !- Visible Absorptance

OS:Construction,
  {cfda0588-2001-4000-adf7-823ca4f7480d}, !- Handle
  ASHRAE 189.1-2009 ExtRoof Metal ClimateZone 7-8, !- Name
  ,                                       !- Surface Rendering Name
  {da966d6e-db1d-42a6-b855-ebc14f247f3a}, !- Layer 1
  {55381aba-13d1-435e-84f2-7ee41fc456c3}, !- Layer 2
  {dc24a625-df52-4445-926a-d4d17866bf3a}; !- Layer 3

OS:StandardsInformation:Construction,
  {deff8994-3aed-48d3-822f-ea7d9bdc1407}, !- Handle
  {cfda0588-2001-4000-adf7-823ca4f7480d}, !- Construction Name
  ExteriorRoof,                           !- Intended Surface Type
  Metal;                                  !- Standards Construction Type

OS:Material,
  {55381aba-13d1-435e-84f2-7ee41fc456c3}, !- Handle
  Roof Insulation [27],                   !- Name
  MediumRough,                            !- Roughness
  0.297000000000001,                      !- Thickness {m}
  0.049,                                  !- Conductivity {W/m-K}
  265,                                    !- Density {kg/m3}
  836.800000000001,                       !- Specific Heat {J/kg-K}
  0.9,                                    !- Thermal Absorptance
  0.7,                                    !- Solar Absorptance
  0.7;                                    !- Visible Absorptance

OS:Construction,
  {de1efab7-a03b-461e-bad7-cf57cd7f667d}, !- Handle
  ASHRAE 189.1-2009 ExtWall Mass ClimateZone 1, !- Name
  ,                                       !- Surface Rendering Name
  {7377e1ca-44c1-4b28-876b-fc0d3524aa7f}, !- Layer 1
  {44f33123-97c8-44b2-a9dc-1f91824f8744}, !- Layer 2
  {53ba91db-b376-41fe-9d4e-a94a5b7deab0}, !- Layer 3
  {d8b47f06-a69e-4f0e-bb59-4f9438ce83a0}; !- Layer 4

OS:StandardsInformation:Construction,
  {e49b5f70-6cc7-466c-82c2-01d3674cf771}, !- Handle
  {de1efab7-a03b-461e-bad7-cf57cd7f667d}, !- Construction Name
  ExteriorWall,                           !- Intended Surface Type
  Mass;                                   !- Standards Construction Type

OS:Material,
  {7377e1ca-44c1-4b28-876b-fc0d3524aa7f}, !- Handle
  1IN Stucco,                             !- Name
  Smooth,                                 !- Roughness
  0.0253,                                 !- Thickness {m}
  0.691799999999999,                      !- Conductivity {W/m-K}
  1858,                                   !- Density {kg/m3}
  836.999999999999,                       !- Specific Heat {J/kg-K}
  0.9,                                    !- Thermal Absorptance
  0.92,                                   !- Solar Absorptance
  0.92;                                   !- Visible Absorptance

OS:Material,
  {44f33123-97c8-44b2-a9dc-1f91824f8744}, !- Handle
  8IN Concrete HW,                        !- Name
  MediumRough,                            !- Roughness
  0.2033,                                 !- Thickness {m}
  1.72959999999999,                       !- Conductivity {W/m-K}
  2242.99999999999,                       !- Density {kg/m3}
  836.999999999999,                       !- Specific Heat {J/kg-K}
  0.9,                                    !- Thermal Absorptance
  0.65,                                   !- Solar Absorptance
  0.65;                                   !- Visible Absorptance

OS:Material,
  {53ba91db-b376-41fe-9d4e-a94a5b7deab0}, !- Handle
  Wall Insulation [31],                   !- Name
  MediumRough,                            !- Roughness
  0.0337000000000001,                     !- Thickness {m}
  0.0432,                                 !- Conductivity {W/m-K}
  91,                                     !- Density {kg/m3}
  836.999999999999,                       !- Specific Heat {J/kg-K}
  0.9,                                    !- Thermal Absorptance
  0.5,                                    !- Solar Absorptance
  0.5;                                    !- Visible Absorptance

OS:Construction,
  {93d832ae-b8d4-4cf2-908e-f63410521ae1}, !- Handle
  ASHRAE 189.1-2009 ExtWall Mass ClimateZone 2, !- Name
  ,                                       !- Surface Rendering Name
  {7377e1ca-44c1-4b28-876b-fc0d3524aa7f}, !- Layer 1
  {44f33123-97c8-44b2-a9dc-1f91824f8744}, !- Layer 2
  {8ec3fa9c-b97d-4a23-a495-fa07bbc73258}, !- Layer 3
  {d8b47f06-a69e-4f0e-bb59-4f9438ce83a0}; !- Layer 4

OS:StandardsInformation:Construction,
  {4cfab2c6-6a36-482c-8268-6f9736a89cea}, !- Handle
  {93d832ae-b8d4-4cf2-908e-f63410521ae1}, !- Construction Name
  ExteriorWall,                           !- Intended Surface Type
  Mass;                                   !- Standards Construction Type

OS:Material,
  {8ec3fa9c-b97d-4a23-a495-fa07bbc73258}, !- Handle
  Wall Insulation [35],                   !- Name
  MediumRough,                            !- Roughness
  0.0452,                                 !- Thickness {m}
  0.0432,                                 !- Conductivity {W/m-K}
  91,                                     !- Density {kg/m3}
  836.999999999999,                       !- Specific Heat {J/kg-K}
  0.9,                                    !- Thermal Absorptance
  0.5,                                    !- Solar Absorptance
  0.5;                                    !- Visible Absorptance

OS:Construction,
  {afb0946e-e639-4a35-b50e-26a03ee3b06c}, !- Handle
  ASHRAE 189.1-2009 ExtWall Mass ClimateZone 3, !- Name
  ,                                       !- Surface Rendering Name
  {7377e1ca-44c1-4b28-876b-fc0d3524aa7f}, !- Layer 1
  {44f33123-97c8-44b2-a9dc-1f91824f8744}, !- Layer 2
  {32b36426-eaaf-419a-bf65-cdb8dd2eaec5}, !- Layer 3
  {d8b47f06-a69e-4f0e-bb59-4f9438ce83a0}; !- Layer 4

OS:StandardsInformation:Construction,
  {3de1443a-0d08-498e-aa2f-c54ecf74d22c}, !- Handle
  {afb0946e-e639-4a35-b50e-26a03ee3b06c}, !- Construction Name
  ExteriorWall,                           !- Intended Surface Type
  Mass;                                   !- Standards Construction Type

OS:Material,
  {32b36426-eaaf-419a-bf65-cdb8dd2eaec5}, !- Handle
  Wall Insulation [36],                   !- Name
  MediumRough,                            !- Roughness
  0.0565999999999999,                     !- Thickness {m}
  0.0432,                                 !- Conductivity {W/m-K}
  91,                                     !- Density {kg/m3}
  836.999999999999,                       !- Specific Heat {J/kg-K}
  0.9,                                    !- Thermal Absorptance
  0.5,                                    !- Solar Absorptance
  0.5;                                    !- Visible Absorptance

OS:Construction,
  {99d1658a-b9dc-4bea-a4fb-2d3e6db908cc}, !- Handle
  ASHRAE 189.1-2009 ExtWall Mass ClimateZone 4, !- Name
  ,                                       !- Surface Rendering Name
  {7377e1ca-44c1-4b28-876b-fc0d3524aa7f}, !- Layer 1
  {44f33123-97c8-44b2-a9dc-1f91824f8744}, !- Layer 2
  {4f21543d-5fbb-4531-a195-1a40eff1a222}, !- Layer 3
  {d8b47f06-a69e-4f0e-bb59-4f9438ce83a0}; !- Layer 4

OS:StandardsInformation:Construction,
  {353f44f3-5512-4590-b5d4-b1af8b3d1651}, !- Handle
  {99d1658a-b9dc-4bea-a4fb-2d3e6db908cc}, !- Construction Name
  ExteriorWall,                           !- Intended Surface Type
  Mass;                                   !- Standards Construction Type

OS:Material,
  {4f21543d-5fbb-4531-a195-1a40eff1a222}, !- Handle
  Wall Insulation [37],                   !- Name
  MediumRough,                            !- Roughness
  0.0680999999999999,                     !- Thickness {m}
  0.0432,                                 !- Conductivity {W/m-K}
  91,                                     !- Density {kg/m3}
  836.999999999999,                       !- Specific Heat {J/kg-K}
  0.9,                                    !- Thermal Absorptance
  0.5,                                    !- Solar Absorptance
  0.5;                                    !- Visible Absorptance

OS:Construction,
  {1b3a5f2b-e7b8-4a0d-bdbf-29dfe1f338c7}, !- Handle
  ASHRAE 189.1-2009 ExtWall Mass ClimateZone 5, !- Name
  ,                                       !- Surface Rendering Name
  {7377e1ca-44c1-4b28-876b-fc0d3524aa7f}, !- Layer 1
  {44f33123-97c8-44b2-a9dc-1f91824f8744}, !- Layer 2
  {85c03f31-f7cf-4b12-b107-8e8ce50a0bc5}, !- Layer 3
  {d8b47f06-a69e-4f0e-bb59-4f9438ce83a0}; !- Layer 4

OS:StandardsInformation:Construction,
  {b80dc9ce-d019-44ec-ab76-6b38ec0b3293}, !- Handle
  {1b3a5f2b-e7b8-4a0d-bdbf-29dfe1f338c7}, !- Construction Name
  ExteriorWall,                           !- Intended Surface Type
  Mass;                                   !- Standards Construction Type

OS:Material,
  {85c03f31-f7cf-4b12-b107-8e8ce50a0bc5}, !- Handle
  Wall Insulation [40],                   !- Name
  MediumRough,                            !- Roughness
  0.0793999999999999,                     !- Thickness {m}
  0.0432,                                 !- Conductivity {W/m-K}
  91,                                     !- Density {kg/m3}
  836.999999999999,                       !- Specific Heat {J/kg-K}
  0.9,                                    !- Thermal Absorptance
  0.5,                                    !- Solar Absorptance
  0.5;                                    !- Visible Absorptance

OS:Construction,
  {44836c8b-6cdc-4f4f-a153-f2573eb4b80d}, !- Handle
  ASHRAE 189.1-2009 ExtWall Mass ClimateZone 6, !- Name
  ,                                       !- Surface Rendering Name
  {7377e1ca-44c1-4b28-876b-fc0d3524aa7f}, !- Layer 1
  {44f33123-97c8-44b2-a9dc-1f91824f8744}, !- Layer 2
  {713c91a7-c140-4b13-98cf-1e6a2753f158}, !- Layer 3
  {d8b47f06-a69e-4f0e-bb59-4f9438ce83a0}; !- Layer 4

OS:StandardsInformation:Construction,
  {300b1c77-cb5f-4c79-a14c-f1da9dde7b06}, !- Handle
  {44836c8b-6cdc-4f4f-a153-f2573eb4b80d}, !- Construction Name
  ExteriorWall,                           !- Intended Surface Type
  Mass;                                   !- Standards Construction Type

OS:Material,
  {713c91a7-c140-4b13-98cf-1e6a2753f158}, !- Handle
  Wall Insulation [42],                   !- Name
  MediumRough,                            !- Roughness
  0.0913999999999999,                     !- Thickness {m}
  0.0432,                                 !- Conductivity {W/m-K}
  91,                                     !- Density {kg/m3}
  836.999999999999,                       !- Specific Heat {J/kg-K}
  0.9,                                    !- Thermal Absorptance
  0.5,                                    !- Solar Absorptance
  0.5;                                    !- Visible Absorptance

OS:Construction,
  {f6023d33-d540-490e-8245-a5abba61daef}, !- Handle
  ASHRAE 189.1-2009 ExtWall Mass ClimateZone 7-8, !- Name
  ,                                       !- Surface Rendering Name
  {7377e1ca-44c1-4b28-876b-fc0d3524aa7f}, !- Layer 1
  {44f33123-97c8-44b2-a9dc-1f91824f8744}, !- Layer 2
  {59f9040f-006c-4011-9c8b-4f92725fe68b}, !- Layer 3
  {d8b47f06-a69e-4f0e-bb59-4f9438ce83a0}; !- Layer 4

OS:StandardsInformation:Construction,
  {56f9ce69-a1c0-4b10-85fc-1ee5d84c9266}, !- Handle
  {f6023d33-d540-490e-8245-a5abba61daef}, !- Construction Name
  ExteriorWall,                           !- Intended Surface Type
  Mass;                                   !- Standards Construction Type

OS:Material,
  {59f9040f-006c-4011-9c8b-4f92725fe68b}, !- Handle
  Wall Insulation [44],                   !- Name
  MediumRough,                            !- Roughness
  0.1104,                                 !- Thickness {m}
  0.0432,                                 !- Conductivity {W/m-K}
  91,                                     !- Density {kg/m3}
  836.999999999999,                       !- Specific Heat {J/kg-K}
  0.9,                                    !- Thermal Absorptance
  0.5,                                    !- Solar Absorptance
  0.5;                                    !- Visible Absorptance

OS:Construction,
  {8a794b9f-2093-4bdb-afa1-378c0b7ddc70}, !- Handle
  ASHRAE 189.1-2009 ExtWall Mass ClimateZone alt-res 1, !- Name
  ,                                       !- Surface Rendering Name
  {7377e1ca-44c1-4b28-876b-fc0d3524aa7f}, !- Layer 1
  {44f33123-97c8-44b2-a9dc-1f91824f8744}, !- Layer 2
  {8ec3fa9c-b97d-4a23-a495-fa07bbc73258}, !- Layer 3
  {d8b47f06-a69e-4f0e-bb59-4f9438ce83a0}; !- Layer 4

OS:StandardsInformation:Construction,
  {09881072-4d3c-4d86-95b0-4e7f06e05820}, !- Handle
  {8a794b9f-2093-4bdb-afa1-378c0b7ddc70}, !- Construction Name
  ExteriorWall,                           !- Intended Surface Type
  Mass;                                   !- Standards Construction Type

OS:Construction,
  {7e04bd40-c57e-43cd-a32d-4f4d103f9032}, !- Handle
  ASHRAE 189.1-2009 ExtWall Mass ClimateZone alt-res 2, !- Name
  ,                                       !- Surface Rendering Name
  {7377e1ca-44c1-4b28-876b-fc0d3524aa7f}, !- Layer 1
  {44f33123-97c8-44b2-a9dc-1f91824f8744}, !- Layer 2
  {32b36426-eaaf-419a-bf65-cdb8dd2eaec5}, !- Layer 3
  {d8b47f06-a69e-4f0e-bb59-4f9438ce83a0}; !- Layer 4

OS:StandardsInformation:Construction,
  {990c3d1c-a02e-479c-9c43-d51f08644b70}, !- Handle
  {7e04bd40-c57e-43cd-a32d-4f4d103f9032}, !- Construction Name
  ExteriorWall,                           !- Intended Surface Type
  Mass;                                   !- Standards Construction Type

OS:Construction,
  {ddc2d23a-6169-4527-bcb0-b201ce13008a}, !- Handle
  ASHRAE 189.1-2009 ExtWall Mass ClimateZone alt-res 3, !- Name
  ,                                       !- Surface Rendering Name
  {7377e1ca-44c1-4b28-876b-fc0d3524aa7f}, !- Layer 1
  {44f33123-97c8-44b2-a9dc-1f91824f8744}, !- Layer 2
  {4f21543d-5fbb-4531-a195-1a40eff1a222}, !- Layer 3
  {d8b47f06-a69e-4f0e-bb59-4f9438ce83a0}; !- Layer 4

OS:StandardsInformation:Construction,
  {4638a63a-e555-4b5f-935d-9c12a1768e5b}, !- Handle
  {ddc2d23a-6169-4527-bcb0-b201ce13008a}, !- Construction Name
  ExteriorWall,                           !- Intended Surface Type
  Mass;                                   !- Standards Construction Type

OS:Construction,
  {aa70e6b9-0932-4e80-ae54-2793f8788a1e}, !- Handle
  ASHRAE 189.1-2009 ExtWall Mass ClimateZone alt-res 4, !- Name
  ,                                       !- Surface Rendering Name
  {7377e1ca-44c1-4b28-876b-fc0d3524aa7f}, !- Layer 1
  {44f33123-97c8-44b2-a9dc-1f91824f8744}, !- Layer 2
  {85c03f31-f7cf-4b12-b107-8e8ce50a0bc5}, !- Layer 3
  {d8b47f06-a69e-4f0e-bb59-4f9438ce83a0}; !- Layer 4

OS:StandardsInformation:Construction,
  {a677c581-9790-413f-a8a3-a53599d657e1}, !- Handle
  {aa70e6b9-0932-4e80-ae54-2793f8788a1e}, !- Construction Name
  ExteriorWall,                           !- Intended Surface Type
  Mass;                                   !- Standards Construction Type

OS:Construction,
  {d91018b6-b4b2-481d-a41e-c545889b1053}, !- Handle
  ASHRAE 189.1-2009 ExtWall Mass ClimateZone alt-res 5, !- Name
  ,                                       !- Surface Rendering Name
  {7377e1ca-44c1-4b28-876b-fc0d3524aa7f}, !- Layer 1
  {44f33123-97c8-44b2-a9dc-1f91824f8744}, !- Layer 2
  {713c91a7-c140-4b13-98cf-1e6a2753f158}, !- Layer 3
  {d8b47f06-a69e-4f0e-bb59-4f9438ce83a0}; !- Layer 4

OS:StandardsInformation:Construction,
  {c98253ed-cb86-4083-97c8-aa6903bc7a29}, !- Handle
  {d91018b6-b4b2-481d-a41e-c545889b1053}, !- Construction Name
  ExteriorWall,                           !- Intended Surface Type
  Mass;                                   !- Standards Construction Type

OS:Construction,
  {7d27aa99-7a1c-4d14-9322-8e5d2777fc92}, !- Handle
  ASHRAE 189.1-2009 ExtWall Mass ClimateZone alt-res 6, !- Name
  ,                                       !- Surface Rendering Name
  {7377e1ca-44c1-4b28-876b-fc0d3524aa7f}, !- Layer 1
  {44f33123-97c8-44b2-a9dc-1f91824f8744}, !- Layer 2
  {59f9040f-006c-4011-9c8b-4f92725fe68b}, !- Layer 3
  {d8b47f06-a69e-4f0e-bb59-4f9438ce83a0}; !- Layer 4

OS:StandardsInformation:Construction,
  {e60b1fcb-8dee-4a2d-af91-6403d865bad0}, !- Handle
  {7d27aa99-7a1c-4d14-9322-8e5d2777fc92}, !- Construction Name
  ExteriorWall,                           !- Intended Surface Type
  Mass;                                   !- Standards Construction Type

OS:Construction,
  {1f5d57dd-e159-41cf-b870-61bbfe3c80a9}, !- Handle
  ASHRAE 189.1-2009 ExtWall Mass ClimateZone alt-res 7, !- Name
  ,                                       !- Surface Rendering Name
  {7377e1ca-44c1-4b28-876b-fc0d3524aa7f}, !- Layer 1
  {44f33123-97c8-44b2-a9dc-1f91824f8744}, !- Layer 2
  {59f9040f-006c-4011-9c8b-4f92725fe68b}, !- Layer 3
  {d8b47f06-a69e-4f0e-bb59-4f9438ce83a0}; !- Layer 4

OS:StandardsInformation:Construction,
  {cfcedb0f-1890-42c9-a474-206a26ab7d77}, !- Handle
  {1f5d57dd-e159-41cf-b870-61bbfe3c80a9}, !- Construction Name
  ExteriorWall,                           !- Intended Surface Type