
OS:Version,
  {5fb87232-bcd3-4752-a83d-2fe23b23da9d}, ! Handle
  0.9.1;                                  ! Version Identifier

OS:SimulationControl,
  {d1e4affc-4277-4909-af68-5788c8f76190}, ! Handle
  Yes,                                    ! Do Zone Sizing Calculation
  Yes,                                    ! Do System Sizing Calculation
  ,                                       ! Do Plant Sizing Calculation
  No,                                     ! Run Simulation for Sizing Periods
  Yes;                                    ! Run Simulation for Weather File Run Periods

OS:Timestep,
  {1844a8c7-7e45-4908-b0b6-bbfc13f8d02f}, ! Handle
  6;                                      ! Number of Timesteps per Hour

OS:RunPeriod,
  {d87cb452-8e3f-4a74-9ca2-678216b7d658}, ! Handle
  Run Period 1,                           ! Name
  1,                                      ! Begin Month
  1,                                      ! Begin Day of Month
  12,                                     ! End Month
  31,                                     ! End Day of Month
  No,                                     ! Use Weather File Holidays and Special Days
  No,                                     ! Use Weather File Daylight Saving Period
  No,                                     ! Apply Weekend Holiday Rule
  Yes,                                    ! Use Weather File Rain Indicators
  Yes,                                    ! Use Weather File Snow Indicators
  1;                                      ! Number of Times Runperiod to be Repeated

OS:SurfaceConvectionAlgorithm:Inside,
  {dd688696-f880-43ac-bfe2-40eeb77bbb87}, ! Handle
  TARP;                                   ! Algorithm

OS:SurfaceConvectionAlgorithm:Outside,
  {04996dad-f5ff-44aa-a6c9-7786d5bb00f0}, ! Handle
  DOE-2;                                  ! Algorithm

OS:HeatBalanceAlgorithm,
  {edd27ce5-9eaa-4f23-bf1b-3da5192e92fe}, ! Handle
  ConductionTransferFunction,             ! Algorithm
  200;                                    ! Surface Temperature Upper Limit {F}

OS:ZoneAirHeatBalanceAlgorithm,
  {39051e7c-bcc6-4991-b627-0106e832562c}, ! Handle
  AnalyticalSolution;                     ! Algorithm

OS:ConvergenceLimits,
  {2b2bddc8-5eb5-4825-b782-2aacb78986ff}; ! Handle

OS:ShadowCalculation,
  {20d42f9b-731f-4125-82b2-f7c61a81181c}, ! Handle
  7,                                      ! Calculation Frequency
  15000;                                  ! Maximum Figures in Shadow Overlap Calculations

OS:Site,
  {922bc110-f0ac-46e6-8671-7528ec1cc400}, ! Handle
  Site 1,                                 ! Name
  41.77,                                  ! Latitude {deg}
  -87.75,                                 ! Longitude {deg}
  -6,                                     ! Time Zone {hr}
  190,                                    ! Elevation {m}
  ;                                       ! Terrain

OS:Site:GroundTemperature:BuildingSurface,
  {c7eb26c0-e2a9-42df-b3cf-e3d69a67f5b3}, ! Handle
  19.527,                                 ! January Ground Temperature {C}
  19.502,                                 ! February Ground Temperature {C}
  19.536,                                 ! March Ground Temperature {C}
  19.598,                                 ! April Ground Temperature {C}
  20.002,                                 ! May Ground Temperature {C}
  21.64,                                  ! June Ground Temperature {C}
  22.225,                                 ! July Ground Temperature {C}
  22.375,                                 ! August Ground Temperature {C}
  21.449,                                 ! September Ground Temperature {C}
  20.121,                                 ! October Ground Temperature {C}
  19.802,                                 ! November Ground Temperature {C}
  19.633;                                 ! December Ground Temperature {C}

OS:Site:WaterMainsTemperature,
  {a20603c3-0b64-4cfe-ba9c-6e16c3a8b737}, ! Handle
  Correlation,                            ! Calculation Method
  ,                                       ! Temperature Schedule Name
  9.69,                                   ! Annual Average Outdoor Air Temperature {C}
  28.1;                                   ! Maximum Difference In Monthly Average Outdoor Air Temperatures {deltaC}

OS:SizingPeriod:DesignDay,
  {b834c4d7-e65c-48f0-8d2a-c8d90f25abcf}, ! Handle
  Sizing Period Design Day 1,             ! Name
  -20.6,                                  ! Maximum Dry-Bulb Temperature {C}
  0,                                      ! Daily Dry-Bulb Temperature Range {deltaC}
  -20.6,                                  ! Humidity Indicating Conditions at Maximum Dry-Bulb {BasedOnField A3}
  99063,                                  ! Barometric Pressure {Pa}
  4.9,                                    ! Wind Speed {m/s}
  270,                                    ! Wind Direction {deg}
  0,                                      ! Sky Clearness
  0,                                      ! Rain Indicator
  0,                                      ! Snow Indicator
  21,                                     ! Day of Month
  1,                                      ! Month
  WinterDesignDay,                        ! Day Type
  0,                                      ! Daylight Saving Time Indicator
  WetBulb,                                ! Humidity Indicating Type
  ,                                       ! Humidity Indicating Day Schedule Name
  DefaultMultipliers,                     ! Dry-Bulb Temperature Range Modifier Type
  ,                                       ! Dry-Bulb Temperature Range Modifier Schedule Name
  AshraeClearSky;                         ! Solar Model Indicator

OS:SizingPeriod:DesignDay,
  {f069539a-c35f-49f3-8394-570e4b978225}, ! Handle
  Sizing Period Design Day 2,             ! Name
  33.2,                                   ! Maximum Dry-Bulb Temperature {C}
  10.7,                                   ! Daily Dry-Bulb Temperature Range {deltaC}
  23.8,                                   ! Humidity Indicating Conditions at Maximum Dry-Bulb {BasedOnField A3}
  99063,                                  ! Barometric Pressure {Pa}
  5.3,                                    ! Wind Speed {m/s}
  230,                                    ! Wind Direction {deg}
  1,                                      ! Sky Clearness
  0,                                      ! Rain Indicator
  0,                                      ! Snow Indicator
  21,                                     ! Day of Month
  7,                                      ! Month
  SummerDesignDay,                        ! Day Type
  0,                                      ! Daylight Saving Time Indicator
  WetBulb,                                ! Humidity Indicating Type
  ,                                       ! Humidity Indicating Day Schedule Name
  DefaultMultipliers,                     ! Dry-Bulb Temperature Range Modifier Type
  ,                                       ! Dry-Bulb Temperature Range Modifier Schedule Name
  AshraeClearSky;                         ! Solar Model Indicator

OS:ScheduleTypeLimits,
  {df289ac5-80cd-485b-ba4d-5350a31f0d8e}, ! Handle
  Temperature,                            ! Name
  -60,                                    ! Lower Limit Value {BasedOnField A4}
  200,                                    ! Upper Limit Value {BasedOnField A4}
  CONTINUOUS,                             ! Numeric Type
  Temperature;                            ! Unit Type

OS:DefaultScheduleSet,
  {9685626d-366b-4d94-9b33-bc90f3c304f6}, ! Handle
  Default Schedules,                      ! Name
  ,                                       ! Hours of Operation Schedule Name
  {fc8864b2-b1d9-469b-8d8f-f980cbbe0faf}, ! Number of People Schedule Name
  {a92b7f0f-f20b-4d5f-86c0-67a31b032dc0}, ! People Activity Level Schedule Name
  {ed8af8bb-2cf8-41ea-8ef0-2ae68c374882}, ! Lighting Schedule Name
  {5efc1c94-c7cc-4791-bba5-1947544bd353}, ! Electric Equipment Schedule Name
  {389caa67-db20-4a63-8831-831d3d06dac8}, ! Gas Equipment Schedule Name
  {c1eec967-8a79-4b3b-ba1b-c4da95d2462d}, ! Hot Water Equipment Schedule Name
  {45698c76-2e92-4d70-9db0-5ca9b60a71d4}, ! Infiltration Schedule Name
  ,                                       ! Steam Equipment Schedule Name
  ;                                       ! Other Equipment Schedule Name

OS:Schedule:Ruleset,
  {fc8864b2-b1d9-469b-8d8f-f980cbbe0faf}, ! Handle
  Medium Office Number of People Schedule, ! Name
  {7857d0cd-e06a-433a-a9b2-8ddd52be3e20}, ! Schedule Type Limits Name
  {0015be65-57a5-4ac0-8f0b-24770a9955d0}, ! Default Day Schedule Name
  {90c98a05-a521-497c-a672-aa2e6ec421a6}; ! Summer Design Day Schedule Name

OS:Schedule:Day,
  {0015be65-57a5-4ac0-8f0b-24770a9955d0}, ! Handle
  Medium Office Number of People All Other Days Schedule, ! Name
  {7857d0cd-e06a-433a-a9b2-8ddd52be3e20}, ! Schedule Type Limits Name
  ,                                       ! Interpolate to Timestep
  24,                                     ! Hour 1
  0,                                      ! Minute 1
  0;                                      ! Value Until Time 1

OS:Schedule:Day,
  {68f87bb6-42d3-4614-a5c4-f4138feeb03a}, ! Handle
  Medium Office Number of People Summer Design Day Schedule, ! Name
  ,                                       ! Schedule Type Limits Name
  ,                                       ! Interpolate to Timestep
  6,                                      ! Hour 1
  0,                                      ! Minute 1
  0,                                      ! Value Until Time 1
  22,                                     ! Hour 2
  0,                                      ! Minute 2
  1,                                      ! Value Until Time 2
  24,                                     ! Hour 3
  0,                                      ! Minute 3
  0.05;                                   ! Value Until Time 3

OS:Schedule:Day,
  {90c98a05-a521-497c-a672-aa2e6ec421a6}, ! Handle
  Medium Office Number of People Summer Design Day Schedule 1, ! Name
  {7857d0cd-e06a-433a-a9b2-8ddd52be3e20}, ! Schedule Type Limits Name
  ,                                       ! Interpolate to Timestep
  6,                                      ! Hour 1
  0,                                      ! Minute 1
  0,                                      ! Value Until Time 1
  22,                                     ! Hour 2
  0,                                      ! Minute 2
  1,                                      ! Value Until Time 2
  24,                                     ! Hour 3
  0,                                      ! Minute 3
  0.05;                                   ! Value Until Time 3

OS:Schedule:Rule,
  {b9db3547-8eed-4e25-ba5a-e78f18156afe}, ! Handle
  Medium Office Number of People Schedule Weekdays Rule, ! Name
  {fc8864b2-b1d9-469b-8d8f-f980cbbe0faf}, ! Schedule Ruleset Name
  1,                                      ! Rule Order
  {a28d1cc1-8678-4f23-8914-9288bc8ffed3}, ! Day Schedule Name
  ,                                       ! Apply Sunday
  Yes,                                    ! Apply Monday
  Yes,                                    ! Apply Tuesday
  Yes,                                    ! Apply Wednesday
  Yes,                                    ! Apply Thursday
  Yes;                                    ! Apply Friday

OS:Schedule:Day,
  {a28d1cc1-8678-4f23-8914-9288bc8ffed3}, ! Handle
  Medium Office Number of People Weekdays Schedule, ! Name
  {7857d0cd-e06a-433a-a9b2-8ddd52be3e20}, ! Schedule Type Limits Name
  ,                                       ! Interpolate to Timestep
  6,                                      ! Hour 1
  0,                                      ! Minute 1
  0,                                      ! Value Until Time 1
  7,                                      ! Hour 2
  0,                                      ! Minute 2
  0.1,                                    ! Value Until Time 2
  8,                                      ! Hour 3
  0,                                      ! Minute 3
  0.2,                                    ! Value Until Time 3
  12,                                     ! Hour 4
  0,                                      ! Minute 4
  0.95,                                   ! Value Until Time 4
  13,                                     ! Hour 5
  0,                                      ! Minute 5
  0.5,                                    ! Value Until Time 5
  17,                                     ! Hour 6
  0,                                      ! Minute 6
  0.95,                                   ! Value Until Time 6
  18,                                     ! Hour 7
  0,                                      ! Minute 7
  0.7,                                    ! Value Until Time 7
  20,                                     ! Hour 8
  0,                                      ! Minute 8
  0.4,                                    ! Value Until Time 8
  22,                                     ! Hour 9
  0,                                      ! Minute 9
  0.1,                                    ! Value Until Time 9
  24,                                     ! Hour 10
  0,                                      ! Minute 10
  0.05;                                   ! Value Until Time 10

OS:Schedule:Rule,
  {5e8063e1-408a-4524-837a-4e9c23e44a64}, ! Handle
  Medium Office Number of People Schedule Saturday Rule, ! Name
  {fc8864b2-b1d9-469b-8d8f-f980cbbe0faf}, ! Schedule Ruleset Name
  0,                                      ! Rule Order
  {77d90eaf-53c8-44b6-aece-5a35df71a94a}, ! Day Schedule Name
  ,                                       ! Apply Sunday
  ,                                       ! Apply Monday
  ,                                       ! Apply Tuesday
  ,                                       ! Apply Wednesday
  ,                                       ! Apply Thursday
  ,                                       ! Apply Friday
  Yes;                                    ! Apply Saturday

OS:Schedule:Day,
  {77d90eaf-53c8-44b6-aece-5a35df71a94a}, ! Handle
  Medium Office Number of People Saturday Schedule, ! Name
  {7857d0cd-e06a-433a-a9b2-8ddd52be3e20}, ! Schedule Type Limits Name
  ,                                       ! Interpolate to Timestep
  6,                                      ! Hour 1
  0,                                      ! Minute 1
  0,                                      ! Value Until Time 1
  8,                                      ! Hour 2
  0,                                      ! Minute 2
  0.1,                                    ! Value Until Time 2
  14,                                     ! Hour 3
  0,                                      ! Minute 3
  0.5,                                    ! Value Until Time 3
  17,                                     ! Hour 4
  0,                                      ! Minute 4
  0.1,                                    ! Value Until Time 4
  24,                                     ! Hour 5
  0,                                      ! Minute 5
  0;                                      ! Value Until Time 5

OS:ScheduleTypeLimits,
  {7857d0cd-e06a-433a-a9b2-8ddd52be3e20}, ! Handle
  Fractional,                             ! Name
  0,                                      ! Lower Limit Value {BasedOnField A4}
  1,                                      ! Upper Limit Value {BasedOnField A4}
  Continuous;                             ! Numeric Type

OS:Schedule:Ruleset,
  {a92b7f0f-f20b-4d5f-86c0-67a31b032dc0}, ! Handle
  Medium Office People Activity Level Schedule, ! Name
  {8e0e9a95-547e-4912-a447-61d40fd6c1b9}, ! Schedule Type Limits Name
  {120af17b-7396-4e66-9de6-9f5022d71db8}; ! Default Day Schedule Name

OS:Schedule:Day,
  {120af17b-7396-4e66-9de6-9f5022d71db8}, ! Handle
  Medium Office People Activity Level All Days Schedule, ! Name
  {8e0e9a95-547e-4912-a447-61d40fd6c1b9}, ! Schedule Type Limits Name
  ,                                       ! Interpolate to Timestep
  24,                                     ! Hour 1
  0,                                      ! Minute 1
  120;                                    ! Value Until Time 1

OS:ScheduleTypeLimits,
  {8e0e9a95-547e-4912-a447-61d40fd6c1b9}, ! Handle
  ActivityLevel,                          ! Name
  0,                                      ! Lower Limit Value {BasedOnField A4}
  ,                                       ! Upper Limit Value {BasedOnField A4}
  Continuous,                             ! Numeric Type
  ActivityLevel;                          ! Unit Type

OS:Schedule:Ruleset,
  {ed8af8bb-2cf8-41ea-8ef0-2ae68c374882}, ! Handle
  Medium Office Lighting Schedule,        ! Name
  {7857d0cd-e06a-433a-a9b2-8ddd52be3e20}, ! Schedule Type Limits Name
  {28b7a453-a638-4c19-ba01-6331b4d24238}, ! Default Day Schedule Name
  {2879e350-c960-40ec-9538-4e6c6df7523f}, ! Summer Design Day Schedule Name
  {1e6e0d32-1033-4abe-91b4-ec6cdf3acab5}; ! Winter Design Day Schedule Name

OS:Schedule:Day,
  {28b7a453-a638-4c19-ba01-6331b4d24238}, ! Handle
  Medium Office Lighting All Other Days Schedule, ! Name
  {7857d0cd-e06a-433a-a9b2-8ddd52be3e20}, ! Schedule Type Limits Name
  ,                                       ! Interpolate to Timestep
  24,                                     ! Hour 1
  0,                                      ! Minute 1
  0.05;                                   ! Value Until Time 1

OS:Schedule:Day,
  {f57fd3e5-9b39-4a5d-b724-c7e87ac38bf8}, ! Handle
  Medium Office Lighting Summer Design Day Schedule, ! Name
  ,                                       ! Schedule Type Limits Name
  ,                                       ! Interpolate to Timestep
  6,                                      ! Hour 1
  0,                                      ! Minute 1
  1,                                      ! Value Until Time 1
  24,                                     ! Hour 2
  0,                                      ! Minute 2
  0;                                      ! Value Until Time 2

OS:Schedule:Day,
  {2879e350-c960-40ec-9538-4e6c6df7523f}, ! Handle
  Medium Office Lighting Summer Design Day Schedule 1, ! Name
  {7857d0cd-e06a-433a-a9b2-8ddd52be3e20}, ! Schedule Type Limits Name
  ,                                       ! Interpolate to Timestep
  6,                                      ! Hour 1
  0,                                      ! Minute 1
  1,                                      ! Value Until Time 1
  24,                                     ! Hour 2
  0,                                      ! Minute 2
  0;                                      ! Value Until Time 2

OS:Schedule:Day,
  {ba5824e3-756b-4d0b-aa7d-ca93b4030113}, ! Handle
  Medium Office Lighting Winter Design Day Schedule, ! Name
  ,                                       ! Schedule Type Limits Name
  ,                                       ! Interpolate to Timestep
  24,                                     ! Hour 1
  0,                                      ! Minute 1
  0;                                      ! Value Until Time 1

OS:Schedule:Day,
  {1e6e0d32-1033-4abe-91b4-ec6cdf3acab5}, ! Handle
  Medium Office Lighting Winter Design Day Schedule 1, ! Name
  {7857d0cd-e06a-433a-a9b2-8ddd52be3e20}, ! Schedule Type Limits Name
  ,                                       ! Interpolate to Timestep
  24,                                     ! Hour 1
  0,                                      ! Minute 1
  0;                                      ! Value Until Time 1

OS:Schedule:Rule,
  {74927e4d-c0a0-4bcf-86ba-fbca81ce322d}, ! Handle
  Medium Office Lighting Schedule Weekdays Rule, ! Name
  {ed8af8bb-2cf8-41ea-8ef0-2ae68c374882}, ! Schedule Ruleset Name
  1,                                      ! Rule Order
  {c86b3b8a-7126-4568-a284-ab84325fcc1b}, ! Day Schedule Name
  ,                                       ! Apply Sunday
  Yes,                                    ! Apply Monday
  Yes,                                    ! Apply Tuesday
  Yes,                                    ! Apply Wednesday
  Yes,                                    ! Apply Thursday
  Yes;                                    ! Apply Friday

OS:Schedule:Day,
  {c86b3b8a-7126-4568-a284-ab84325fcc1b}, ! Handle
  Medium Office Lighting Weekdays Schedule, ! Name
  {7857d0cd-e06a-433a-a9b2-8ddd52be3e20}, ! Schedule Type Limits Name
  ,                                       ! Interpolate to Timestep
  5,                                      ! Hour 1
  0,                                      ! Minute 1
  0.05,                                   ! Value Until Time 1
  7,                                      ! Hour 2
  0,                                      ! Minute 2
  0.1,                                    ! Value Until Time 2
  8,                                      ! Hour 3
  0,                                      ! Minute 3
  0.3,                                    ! Value Until Time 3
  17,                                     ! Hour 4
  0,                                      ! Minute 4
  0.9,                                    ! Value Until Time 4
  18,                                     ! Hour 5
  0,                                      ! Minute 5
  0.7,                                    ! Value Until Time 5
  20,                                     ! Hour 6
  0,                                      ! Minute 6
  0.5,                                    ! Value Until Time 6
  22,                                     ! Hour 7
  0,                                      ! Minute 7
  0.3,                                    ! Value Until Time 7
  23,                                     ! Hour 8
  0,                                      ! Minute 8
  0.1,                                    ! Value Until Time 8
  24,                                     ! Hour 9
  0,                                      ! Minute 9
  0.05;                                   ! Value Until Time 9

OS:Schedule:Rule,
  {9c0c9594-7691-4b1a-9ea5-1756bb2c653b}, ! Handle
  Medium Office Lighting Schedule Saturday Rule, ! Name
  {ed8af8bb-2cf8-41ea-8ef0-2ae68c374882}, ! Schedule Ruleset Name
  0,                                      ! Rule Order
  {ff02f145-5079-4013-86a7-ffa2e0673aed}, ! Day Schedule Name
  ,                                       ! Apply Sunday
  ,                                       ! Apply Monday
  ,                                       ! Apply Tuesday
  ,                                       ! Apply Wednesday
  ,                                       ! Apply Thursday
  ,                                       ! Apply Friday
  Yes;                                    ! Apply Saturday

OS:Schedule:Day,
  {ff02f145-5079-4013-86a7-ffa2e0673aed}, ! Handle
  Medium Office Lighting Saturday Schedule, ! Name
  {7857d0cd-e06a-433a-a9b2-8ddd52be3e20}, ! Schedule Type Limits Name
  ,                                       ! Interpolate to Timestep
  6,                                      ! Hour 1
  0,                                      ! Minute 1
  0.05,                                   ! Value Until Time 1
  8,                                      ! Hour 2
  0,                                      ! Minute 2
  0.1,                                    ! Value Until Time 2
  14,                                     ! Hour 3
  0,                                      ! Minute 3
  0.5,                                    ! Value Until Time 3
  17,                                     ! Hour 4
  0,                                      ! Minute 4
  0.15,                                   ! Value Until Time 4
  24,                                     ! Hour 5
  0,                                      ! Minute 5
  0.05;                                   ! Value Until Time 5

OS:Schedule:Ruleset,
  {5efc1c94-c7cc-4791-bba5-1947544bd353}, ! Handle
  Medium Office Electric Equipment Schedule, ! Name
  {7857d0cd-e06a-433a-a9b2-8ddd52be3e20}, ! Schedule Type Limits Name
  {c50a47cb-8683-4e7d-b690-750aeb672260}, ! Default Day Schedule Name
  {6f0e0bad-92d5-4aed-91d2-447510251c29}, ! Summer Design Day Schedule Name
  {0496febc-e465-4059-be90-9fdfe30fdfa8}; ! Winter Design Day Schedule Name

OS:Schedule:Day,
  {c50a47cb-8683-4e7d-b690-750aeb672260}, ! Handle
  Medium Office Electric Equipment All Other Days Schedule, ! Name
  {7857d0cd-e06a-433a-a9b2-8ddd52be3e20}, ! Schedule Type Limits Name
  ,                                       ! Interpolate to Timestep
  24,                                     ! Hour 1
  0,                                      ! Minute 1
  0.3;                                    ! Value Until Time 1

OS:Schedule:Day,
  {812224dd-f567-4189-8fd7-c53ace9841ae}, ! Handle
  Medium Office Electric Equipment Summer Design Day Schedule, ! Name
  ,                                       ! Schedule Type Limits Name
  ,                                       ! Interpolate to Timestep
  6,                                      ! Hour 1
  0,                                      ! Minute 1
  1,                                      ! Value Until Time 1
  24,                                     ! Hour 2
  0,                                      ! Minute 2
  0;                                      ! Value Until Time 2

OS:Schedule:Day,
  {6f0e0bad-92d5-4aed-91d2-447510251c29}, ! Handle
  Medium Office Electric Equipment Summer Design Day Schedule 1, ! Name
  {7857d0cd-e06a-433a-a9b2-8ddd52be3e20}, ! Schedule Type Limits Name
  ,                                       ! Interpolate to Timestep
  6,                                      ! Hour 1
  0,                                      ! Minute 1
  1,                                      ! Value Until Time 1
  24,                                     ! Hour 2
  0,                                      ! Minute 2
  0;                                      ! Value Until Time 2

OS:Schedule:Day,
  {8fdd361e-906c-44ab-934c-9d2895824272}, ! Handle
  Medium Office Electric Equipment Winter Design Day Schedule, ! Name
  ,                                       ! Schedule Type Limits Name
  ,                                       ! Interpolate to Timestep
  24,                                     ! Hour 1
  0,                                      ! Minute 1
  0;                                      ! Value Until Time 1

OS:Schedule:Day,
  {0496febc-e465-4059-be90-9fdfe30fdfa8}, ! Handle
  Medium Office Electric Equipment Winter Design Day Schedule 1, ! Name
  {7857d0cd-e06a-433a-a9b2-8ddd52be3e20}, ! Schedule Type Limits Name
  ,                                       ! Interpolate to Timestep
  24,                                     ! Hour 1
  0,                                      ! Minute 1
  0;                                      ! Value Until Time 1

OS:Schedule:Rule,
  {d893e3ea-e9b3-4a95-b923-166ddddacbdc}, ! Handle
  Medium Office Electric Equipment Schedule Weekdays Rule, ! Name
  {5efc1c94-c7cc-4791-bba5-1947544bd353}, ! Schedule Ruleset Name
  1,                                      ! Rule Order
  {114ad82a-7b14-4771-b599-2bd066ce26b1}, ! Day Schedule Name
  ,                                       ! Apply Sunday
  Yes,                                    ! Apply Monday
  Yes,                                    ! Apply Tuesday
  Yes,                                    ! Apply Wednesday
  Yes,                                    ! Apply Thursday
  Yes;                                    ! Apply Friday

OS:Schedule:Day,
  {114ad82a-7b14-4771-b599-2bd066ce26b1}, ! Handle
  Medium Office Electric Equipment Weekdays Schedule, ! Name
  {7857d0cd-e06a-433a-a9b2-8ddd52be3e20}, ! Schedule Type Limits Name
  ,                                       ! Interpolate to Timestep
  8,                                      ! Hour 1
  0,                                      ! Minute 1
  0.4,                                    ! Value Until Time 1
  12,                                     ! Hour 2
  0,                                      ! Minute 2
  0.9,                                    ! Value Until Time 2
  13,                                     ! Hour 3
  0,                                      ! Minute 3
  0.8,                                    ! Value Until Time 3
  17,                                     ! Hour 4
  0,                                      ! Minute 4
  0.9,                                    ! Value Until Time 4
  18,                                     ! Hour 5
  0,                                      ! Minute 5
  0.8,                                    ! Value Until Time 5
  20,                                     ! Hour 6
  0,                                      ! Minute 6
  0.6,                                    ! Value Until Time 6
  22,                                     ! Hour 7
  0,                                      ! Minute 7
  0.5,                                    ! Value Until Time 7
  24,                                     ! Hour 8
  0,                                      ! Minute 8
  0.4;                                    ! Value Until Time 8

OS:Schedule:Rule,
  {9037ec02-223e-42a6-9fff-a820b4258497}, ! Handle
  Medium Office Electric Equipment Schedule Saturday Rule, ! Name
  {5efc1c94-c7cc-4791-bba5-1947544bd353}, ! Schedule Ruleset Name
  0,                                      ! Rule Order
  {62d2e0d8-002e-48a4-9dc8-3f26898df6ff}, ! Day Schedule Name
  ,                                       ! Apply Sunday
  ,                                       ! Apply Monday
  ,                                       ! Apply Tuesday
  ,                                       ! Apply Wednesday
  ,                                       ! Apply Thursday
  ,                                       ! Apply Friday
  Yes;                                    ! Apply Saturday

OS:Schedule:Day,
  {62d2e0d8-002e-48a4-9dc8-3f26898df6ff}, ! Handle
  Medium Office Electric Equipment Saturday Schedule, ! Name
  {7857d0cd-e06a-433a-a9b2-8ddd52be3e20}, ! Schedule Type Limits Name
  ,                                       ! Interpolate to Timestep