
OS:Version,
  {01fecb3b-c4d7-46be-a635-02bb549a0d0b}, !- Handle
  1.9.4;                                  !- Version Identifier

OS:SimulationControl,
  {43f3ac48-470f-4050-ae2d-550eac59b08d}, !- Handle
  Yes,                                    !- Do Zone Sizing Calculation
  Yes,                                    !- Do System Sizing Calculation
  ,                                       !- Do Plant Sizing Calculation
  No,                                     !- Run Simulation for Sizing Periods
  Yes;                                    !- Run Simulation for Weather File Run Periods

OS:Timestep,
  {2604f74c-f073-4a92-8673-c768d929bc76}, !- Handle
  6;                                      !- Number of Timesteps per Hour

OS:RunPeriod,
  {6b97db81-6159-48c1-9ffe-bc542fe69adc}, !- Handle
  Run Period 1,                           !- Name
  1,                                      !- Begin Month
  1,                                      !- Begin Day of Month
  12,                                     !- End Month
  31,                                     !- End Day of Month
  No,                                     !- Use Weather File Holidays and Special Days
  No,                                     !- Use Weather File Daylight Saving Period
  No,                                     !- Apply Weekend Holiday Rule
  Yes,                                    !- Use Weather File Rain Indicators
  Yes,                                    !- Use Weather File Snow Indicators
  1;                                      !- Number of Times Runperiod to be Repeated

OS:SurfaceConvectionAlgorithm:Inside,
  {f76af177-59fb-4127-8ee1-bc5f8bfa6d72}, !- Handle
  TARP;                                   !- Algorithm

OS:SurfaceConvectionAlgorithm:Outside,
  {9a047ef7-1df1-4250-9ecb-0fd290e45be8}, !- Handle
  DOE-2;                                  !- Algorithm

OS:HeatBalanceAlgorithm,
  {16f383c1-6b3a-464f-a9ed-7a8586fc9f5c}, !- Handle
  ConductionTransferFunction,             !- Algorithm
  200;                                    !- Surface Temperature Upper Limit {C}

OS:ZoneAirHeatBalanceAlgorithm,
  {2ecbf818-5c24-449e-8d12-b748040cd549}, !- Handle
  ThirdOrderBackwardDifference;           !- Algorithm

OS:ConvergenceLimits,
  {76a5b3fe-39a5-4ae5-9faf-82e7ff78e097}, !- Handle
  1;                                      !- Minimum System Timestep {minutes}

OS:ShadowCalculation,
  {c9ba570d-478f-4152-b4a8-3f5787497945}, !- Handle
  20,                                     !- Calculation Frequency
  15000;                                  !- Maximum Figures in Shadow Overlap Calculations

OS:Site,
  {f7cb96ae-8d66-418e-be00-2be8b752233d}, !- Handle
  Site 1,                                 !- Name
  41.77,                                  !- Latitude {deg}
  -87.75,                                 !- Longitude {deg}
  -6,                                     !- Time Zone {hr}
  190,                                    !- Elevation {m}
  ;                                       !- Terrain

OS:Site:GroundTemperature:BuildingSurface,
  {0d38fda6-d5cc-4566-ab63-6882397d7b04}, !- Handle
  19.527,                                 !- January Ground Temperature {C}
  19.502,                                 !- February Ground Temperature {C}
  19.536,                                 !- March Ground Temperature {C}
  19.598,                                 !- April Ground Temperature {C}
  20.002,                                 !- May Ground Temperature {C}
  21.64,                                  !- June Ground Temperature {C}
  22.225,                                 !- July Ground Temperature {C}
  22.375,                                 !- August Ground Temperature {C}
  21.449,                                 !- September Ground Temperature {C}
  20.121,                                 !- October Ground Temperature {C}
  19.802,                                 !- November Ground Temperature {C}
  19.633;                                 !- December Ground Temperature {C}

OS:Site:WaterMainsTemperature,
  {b9784887-294e-4692-a09c-86ee9b748dd0}, !- Handle
  Correlation,                            !- Calculation Method
  ,                                       !- Temperature Schedule Name
  9.69,                                   !- Annual Average Outdoor Air Temperature {C}
  28.1;                                   !- Maximum Difference In Monthly Average Outdoor Air Temperatures {deltaC}

OS:SizingPeriod:DesignDay,
  {2a79e72b-7ec2-4afa-b0ee-79f73b7529b8}, !- Handle
  Sizing Period Design Day 1,             !- Name
  -20.6,                                  !- Maximum Dry-Bulb Temperature {C}
  0,                                      !- Daily Dry-Bulb Temperature Range {deltaC}
  -20.6,                                  !- Humidity Indicating Conditions at Maximum Dry-Bulb {BasedOnField A3}
  99063,                                  !- Barometric Pressure {Pa}
  4.9,                                    !- Wind Speed {m/s}
  270,                                    !- Wind Direction {deg}
  0,                                      !- Sky Clearness
  0,                                      !- Rain Indicator
  0,                                      !- Snow Indicator
  21,                                     !- Day of Month
  1,                                      !- Month
  WinterDesignDay,                        !- Day Type
  0,                                      !- Daylight Saving Time Indicator
  WetBulb,                                !- Humidity Indicating Type
  ,                                       !- Humidity Indicating Day Schedule Name
  DefaultMultipliers,                     !- Dry-Bulb Temperature Range Modifier Type
  ,                                       !- Dry-Bulb Temperature Range Modifier Schedule Name
  AshraeClearSky;                         !- Solar Model Indicator

OS:SizingPeriod:DesignDay,
  {54019876-4b2b-4263-b3ae-90190f48b4a6}, !- Handle
  Sizing Period Design Day 2,             !- Name
  33.2,                                   !- Maximum Dry-Bulb Temperature {C}
  10.7,                                   !- Daily Dry-Bulb Temperature Range {deltaC}
  23.8,                                   !- Humidity Indicating Conditions at Maximum Dry-Bulb {BasedOnField A3}
  99063,                                  !- Barometric Pressure {Pa}
  5.3,                                    !- Wind Speed {m/s}
  230,                                    !- Wind Direction {deg}
  1,                                      !- Sky Clearness
  0,                                      !- Rain Indicator
  0,                                      !- Snow Indicator
  21,                                     !- Day of Month
  7,                                      !- Month
  SummerDesignDay,                        !- Day Type
  0,                                      !- Daylight Saving Time Indicator
  WetBulb,                                !- Humidity Indicating Type
  ,                                       !- Humidity Indicating Day Schedule Name
  DefaultMultipliers,                     !- Dry-Bulb Temperature Range Modifier Type
  ,                                       !- Dry-Bulb Temperature Range Modifier Schedule Name
  AshraeClearSky;                         !- Solar Model Indicator

OS:ScheduleTypeLimits,
  {54ec2bb6-7bfa-48b4-85b6-565dea9c042e}, !- Handle
  Temperature,                            !- Name
  -60,                                    !- Lower Limit Value {BasedOnField A4}
  200,                                    !- Upper Limit Value {BasedOnField A4}
  CONTINUOUS,                             !- Numeric Type
  Temperature;                            !- Unit Type

OS:DefaultScheduleSet,
  {750c5ece-8f97-4766-9803-735ef941e045}, !- Handle
  Default Schedules,                      !- Name
  ,                                       !- Hours of Operation Schedule Name
  {12c44b52-aa6d-4276-99b9-fb2b93d51039}, !- Number of People Schedule Name
  {f167af97-6bad-4c3d-a60d-518af78508f8}, !- People Activity Level Schedule Name
  {3e2d1f28-d0d4-434a-8196-2174363bcdc2}, !- Lighting Schedule Name
  {eb9b67bb-a6d7-4251-8f20-1bb6025437cb}, !- Electric Equipment Schedule Name
  {c7d7299c-7791-4023-825d-b4711761ae27}, !- Gas Equipment Schedule Name
  {622d8066-7ffc-4a00-b7f8-371a64c32a9d}, !- Hot Water Equipment Schedule Name
  {a5d89ce5-b05f-4a3f-8f23-5a04d3386d9c}, !- Infiltration Schedule Name
  ,                                       !- Steam Equipment Schedule Name
  ;                                       !- Other Equipment Schedule Name

OS:Schedule:Ruleset,
  {12c44b52-aa6d-4276-99b9-fb2b93d51039}, !- Handle
  Medium Office Number of People Schedule, !- Name
  {46654a21-5ea4-4149-9639-235d00975fd5}, !- Schedule Type Limits Name
  {97770ba0-5044-4d89-803a-32e9d2870f72}, !- Default Day Schedule Name
  {3258294c-3635-4a80-a4d9-fe12c18c0ecd}; !- Summer Design Day Schedule Name

OS:Schedule:Day,
  {97770ba0-5044-4d89-803a-32e9d2870f72}, !- Handle
  Medium Office Number of People All Other Days Schedule, !- Name
  {46654a21-5ea4-4149-9639-235d00975fd5}, !- Schedule Type Limits Name
  ,                                       !- Interpolate to Timestep
  24,                                     !- Hour 1
  0,                                      !- Minute 1
  0;                                      !- Value Until Time 1

OS:Schedule:Day,
  {a3825b08-32cd-4a5c-9e58-2320d599509f}, !- Handle
  Medium Office Number of People Summer Design Day Schedule, !- Name
  ,                                       !- Schedule Type Limits Name
  ,                                       !- Interpolate to Timestep
  6,                                      !- Hour 1
  0,                                      !- Minute 1
  0,                                      !- Value Until Time 1
  22,                                     !- Hour 2
  0,                                      !- Minute 2
  1,                                      !- Value Until Time 2
  24,                                     !- Hour 3
  0,                                      !- Minute 3
  0.05;                                   !- Value Until Time 3

OS:Schedule:Day,
  {3258294c-3635-4a80-a4d9-fe12c18c0ecd}, !- Handle
  Medium Office Number of People Summer Design Day Schedule 1, !- Name
  {46654a21-5ea4-4149-9639-235d00975fd5}, !- Schedule Type Limits Name
  ,                                       !- Interpolate to Timestep
  6,                                      !- Hour 1
  0,                                      !- Minute 1
  0,                                      !- Value Until Time 1
  22,                                     !- Hour 2
  0,                                      !- Minute 2
  1,                                      !- Value Until Time 2
  24,                                     !- Hour 3
  0,                                      !- Minute 3
  0.05;                                   !- Value Until Time 3

OS:Schedule:Rule,
  {a6fc3c1e-48df-4075-b583-5abc5f128906}, !- Handle
  Medium Office Number of People Schedule Weekdays Rule, !- Name
  {12c44b52-aa6d-4276-99b9-fb2b93d51039}, !- Schedule Ruleset Name
  1,                                      !- Rule Order
  {ddbd69d9-db00-4bd0-89f3-2388ed1eabe8}, !- Day Schedule Name
  ,                                       !- Apply Sunday
  Yes,                                    !- Apply Monday
  Yes,                                    !- Apply Tuesday
  Yes,                                    !- Apply Wednesday
  Yes,                                    !- Apply Thursday
  Yes;                                    !- Apply Friday

OS:Schedule:Day,
  {ddbd69d9-db00-4bd0-89f3-2388ed1eabe8}, !- Handle
  Medium Office Number of People Weekdays Schedule, !- Name
  {46654a21-5ea4-4149-9639-235d00975fd5}, !- Schedule Type Limits Name
  ,                                       !- Interpolate to Timestep
  6,                                      !- Hour 1
  0,                                      !- Minute 1
  0,                                      !- Value Until Time 1
  7,                                      !- Hour 2
  0,                                      !- Minute 2
  0.1,                                    !- Value Until Time 2
  8,                                      !- Hour 3
  0,                                      !- Minute 3
  0.2,                                    !- Value Until Time 3
  12,                                     !- Hour 4
  0,                                      !- Minute 4
  0.95,                                   !- Value Until Time 4
  13,                                     !- Hour 5
  0,                                      !- Minute 5
  0.5,                                    !- Value Until Time 5
  17,                                     !- Hour 6
  0,                                      !- Minute 6
  0.95,                                   !- Value Until Time 6
  18,                                     !- Hour 7
  0,                                      !- Minute 7
  0.7,                                    !- Value Until Time 7
  20,                                     !- Hour 8
  0,                                      !- Minute 8
  0.4,                                    !- Value Until Time 8
  22,                                     !- Hour 9
  0,                                      !- Minute 9
  0.1,                                    !- Value Until Time 9
  24,                                     !- Hour 10
  0,                                      !- Minute 10
  0.05;                                   !- Value Until Time 10

OS:Schedule:Rule,
  {1d00cb12-b6c6-45df-bb76-de2d92db50f2}, !- Handle
  Medium Office Number of People Schedule Saturday Rule, !- Name
  {12c44b52-aa6d-4276-99b9-fb2b93d51039}, !- Schedule Ruleset Name
  0,                                      !- Rule Order
  {197514e9-732e-4dc7-9e9f-47e87a31547b}, !- Day Schedule Name
  ,                                       !- Apply Sunday
  ,                                       !- Apply Monday
  ,                                       !- Apply Tuesday
  ,                                       !- Apply Wednesday
  ,                                       !- Apply Thursday
  ,                                       !- Apply Friday
  Yes;                                    !- Apply Saturday

OS:Schedule:Day,
  {197514e9-732e-4dc7-9e9f-47e87a31547b}, !- Handle
  Medium Office Number of People Saturday Schedule, !- Name
  {46654a21-5ea4-4149-9639-235d00975fd5}, !- Schedule Type Limits Name
  ,                                       !- Interpolate to Timestep
  6,                                      !- Hour 1
  0,                                      !- Minute 1
  0,                                      !- Value Until Time 1
  8,                                      !- Hour 2
  0,                                      !- Minute 2
  0.1,                                    !- Value Until Time 2
  14,                                     !- Hour 3
  0,                                      !- Minute 3
  0.5,                                    !- Value Until Time 3
  17,                                     !- Hour 4
  0,                                      !- Minute 4
  0.1,                                    !- Value Until Time 4
  24,                                     !- Hour 5
  0,                                      !- Minute 5
  0;                                      !- Value Until Time 5

OS:ScheduleTypeLimits,
  {46654a21-5ea4-4149-9639-235d00975fd5}, !- Handle
  Fractional,                             !- Name
  0,                                      !- Lower Limit Value {BasedOnField A4}
  1,                                      !- Upper Limit Value {BasedOnField A4}
  Continuous;                             !- Numeric Type

OS:Schedule:Ruleset,
  {f167af97-6bad-4c3d-a60d-518af78508f8}, !- Handle
  Medium Office People Activity Level Schedule, !- Name
  {9ee0f21c-2f55-4f2e-8144-8920c08b5747}, !- Schedule Type Limits Name
  {dac7af97-b5d9-4e42-9524-16c23d6fbb51}; !- Default Day Schedule Name

OS:Schedule:Day,
  {dac7af97-b5d9-4e42-9524-16c23d6fbb51}, !- Handle
  Medium Office People Activity Level All Days Schedule, !- Name
  {9ee0f21c-2f55-4f2e-8144-8920c08b5747}, !- Schedule Type Limits Name
  ,                                       !- Interpolate to Timestep
  24,                                     !- Hour 1
  0,                                      !- Minute 1
  120;                                    !- Value Until Time 1

OS:ScheduleTypeLimits,
  {9ee0f21c-2f55-4f2e-8144-8920c08b5747}, !- Handle
  ActivityLevel,                          !- Name
  0,                                      !- Lower Limit Value {BasedOnField A4}
  ,                                       !- Upper Limit Value {BasedOnField A4}
  Continuous,                             !- Numeric Type
  ActivityLevel;                          !- Unit Type

OS:Schedule:Ruleset,
  {3e2d1f28-d0d4-434a-8196-2174363bcdc2}, !- Handle
  Medium Office Lighting Schedule,        !- Name
  {46654a21-5ea4-4149-9639-235d00975fd5}, !- Schedule Type Limits Name
  {ac23d4b7-75bd-47dd-b72e-2d716489b150}, !- Default Day Schedule Name
  {ad39f949-5155-4606-bdfc-7b4d6171ddb2}, !- Summer Design Day Schedule Name
  {ed1aa588-a1f7-4ffc-bcf1-73ba7281d138}; !- Winter Design Day Schedule Name

OS:Schedule:Day,
  {ac23d4b7-75bd-47dd-b72e-2d716489b150}, !- Handle
  Medium Office Lighting All Other Days Schedule, !- Name
  {46654a21-5ea4-4149-9639-235d00975fd5}, !- Schedule Type Limits Name
  ,                                       !- Interpolate to Timestep
  24,                                     !- Hour 1
  0,                                      !- Minute 1
  0.05;                                   !- Value Until Time 1

OS:Schedule:Day,
  {2278b30f-1ba8-4f93-84c3-578da968d142}, !- Handle
  Medium Office Lighting Summer Design Day Schedule, !- Name
  ,                                       !- Schedule Type Limits Name
  ,                                       !- Interpolate to Timestep
  6,                                      !- Hour 1
  0,                                      !- Minute 1
  1,                                      !- Value Until Time 1
  24,                                     !- Hour 2
  0,                                      !- Minute 2
  0;                                      !- Value Until Time 2

OS:Schedule:Day,
  {ad39f949-5155-4606-bdfc-7b4d6171ddb2}, !- Handle
  Medium Office Lighting Summer Design Day Schedule 1, !- Name
  {46654a21-5ea4-4149-9639-235d00975fd5}, !- Schedule Type Limits Name
  ,                                       !- Interpolate to Timestep
  6,                                      !- Hour 1
  0,                                      !- Minute 1
  1,                                      !- Value Until Time 1
  24,                                     !- Hour 2
  0,                                      !- Minute 2
  0;                                      !- Value Until Time 2

OS:Schedule:Day,
  {6b17b6cf-724d-4b8a-88f8-f0f85d09f2c6}, !- Handle
  Medium Office Lighting Winter Design Day Schedule, !- Name
  ,                                       !- Schedule Type Limits Name
  ,                                       !- Interpolate to Timestep
  24,                                     !- Hour 1
  0,                                      !- Minute 1
  0;                                      !- Value Until Time 1

OS:Schedule:Day,
  {ed1aa588-a1f7-4ffc-bcf1-73ba7281d138}, !- Handle
  Medium Office Lighting Winter Design Day Schedule 1, !- Name
  {46654a21-5ea4-4149-9639-235d00975fd5}, !- Schedule Type Limits Name
  ,                                       !- Interpolate to Timestep
  24,                                     !- Hour 1
  0,                                      !- Minute 1
  0;                                      !- Value Until Time 1

OS:Schedule:Rule,
  {5db4b4d0-c946-437c-8d6f-6f0b8a67db86}, !- Handle
  Medium Office Lighting Schedule Weekdays Rule, !- Name
  {3e2d1f28-d0d4-434a-8196-2174363bcdc2}, !- Schedule Ruleset Name
  1,                                      !- Rule Order
  {08fb8e2a-96b8-40a3-854d-05834c5ff316}, !- Day Schedule Name
  ,                                       !- Apply Sunday
  Yes,                                    !- Apply Monday
  Yes,                                    !- Apply Tuesday
  Yes,                                    !- Apply Wednesday
  Yes,                                    !- Apply Thursday
  Yes;                                    !- Apply Friday

OS:Schedule:Day,
  {08fb8e2a-96b8-40a3-854d-05834c5ff316}, !- Handle
  Medium Office Lighting Weekdays Schedule, !- Name
  {46654a21-5ea4-4149-9639-235d00975fd5}, !- Schedule Type Limits Name
  ,                                       !- Interpolate to Timestep
  5,                                      !- Hour 1
  0,                                      !- Minute 1
  0.05,                                   !- Value Until Time 1
  7,                                      !- Hour 2
  0,                                      !- Minute 2
  0.1,                                    !- Value Until Time 2
  8,                                      !- Hour 3
  0,                                      !- Minute 3
  0.3,                                    !- Value Until Time 3
  17,                                     !- Hour 4
  0,                                      !- Minute 4
  0.9,                                    !- Value Until Time 4
  18,                                     !- Hour 5
  0,                                      !- Minute 5
  0.7,                                    !- Value Until Time 5
  20,                                     !- Hour 6
  0,                                      !- Minute 6
  0.5,                                    !- Value Until Time 6
  22,                                     !- Hour 7
  0,                                      !- Minute 7
  0.3,                                    !- Value Until Time 7
  23,                                     !- Hour 8
  0,                                      !- Minute 8
  0.1,                                    !- Value Until Time 8
  24,                                     !- Hour 9
  0,                                      !- Minute 9
  0.05;                                   !- Value Until Time 9

OS:Schedule:Rule,
  {9d327669-b3af-4ed6-96ea-5445b312cf3e}, !- Handle
  Medium Office Lighting Schedule Saturday Rule, !- Name
  {3e2d1f28-d0d4-434a-8196-2174363bcdc2}, !- Schedule Ruleset Name
  0,                                      !- Rule Order
  {7e1fff1a-9f26-4859-98f1-e5731ccf6b36}, !- Day Schedule Name
  ,                                       !- Apply Sunday
  ,                                       !- Apply Monday
  ,                                       !- Apply Tuesday
  ,                                       !- Apply Wednesday
  ,                                       !- Apply Thursday
  ,                                       !- Apply Friday
  Yes;                                    !- Apply Saturday

OS:Schedule:Day,
  {7e1fff1a-9f26-4859-98f1-e5731ccf6b36}, !- Handle
  Medium Office Lighting Saturday Schedule, !- Name
  {46654a21-5ea4-4149-9639-235d00975fd5}, !- Schedule Type Limits Name
  ,                                       !- Interpolate to Timestep
  6,                                      !- Hour 1
  0,                                      !- Minute 1
  0.05,                                   !- Value Until Time 1
  8,                                      !- Hour 2
  0,                                      !- Minute 2
  0.1,                                    !- Value Until Time 2
  14,                                     !- Hour 3
  0,                                      !- Minute 3
  0.5,                                    !- Value Until Time 3
  17,                                     !- Hour 4
  0,                                      !- Minute 4
  0.15,                                   !- Value Until Time 4
  24,                                     !- Hour 5
  0,                                      !- Minute 5
  0.05;                                   !- Value Until Time 5

OS:Schedule:Ruleset,
  {eb9b67bb-a6d7-4251-8f20-1bb6025437cb}, !- Handle
  Medium Office Electric Equipment Schedule, !- Name
  {46654a21-5ea4-4149-9639-235d00975fd5}, !- Schedule Type Limits Name
  {da3c604d-f931-4bf3-9fc6-b1edabdef6d2}, !- Default Day Schedule Name
  {e6270377-66f0-404d-8513-659f397ec842}, !- Summer Design Day Schedule Name
  {4c533375-b6b2-4b9e-967b-879b34622483}; !- Winter Design Day Schedule Name

OS:Schedule:Day,
  {da3c604d-f931-4bf3-9fc6-b1edabdef6d2}, !- Handle
  Medium Office Electric Equipment All Other Days Schedule, !- Name
  {46654a21-5ea4-4149-9639-235d00975fd5}, !- Schedule Type Limits Name
  ,                                       !- Interpolate to Timestep
  24,                                     !- Hour 1
  0,                                      !- Minute 1
  0.3;                                    !- Value Until Time 1

OS:Schedule:Day,
  {4a51cc69-f8c0-4298-994e-d667d8ffac5a}, !- Handle
  Medium Office Electric Equipment Summer Design Day Schedule, !- Name
  ,                                       !- Schedule Type Limits Name
  ,                                       !- Interpolate to Timestep
  6,                                      !- Hour 1
  0,                                      !- Minute 1
  1,                                      !- Value Until Time 1
  24,                                     !- Hour 2
  0,                                      !- Minute 2
  0;                                      !- Value Until Time 2

OS:Schedule:Day,
  {e6270377-66f0-404d-8513-659f397ec842}, !- Handle
  Medium Office Electric Equipment Summer Design Day Schedule 1, !- Name
  {46654a21-5ea4-4149-9639-235d00975fd5}, !- Schedule Type Limits Name
  ,                                       !- Interpolate to Timestep
  6,                                      !- Hour 1
  0,                                      !- Minute 1
  1,                                      !- Value Until Time 1
  24,                                     !- Hour 2
  0,                                      !- Minute 2
  0;                                      !- Value Until Time 2

OS:Schedule:Day,
  {13805e49-9f3c-4f7f-a3e4-b57f749c239c}, !- Handle
  Medium Office Electric Equipment Winter Design Day Schedule, !- Name
  ,                                       !- Schedule Type Limits Name
  ,                                       !- Interpolate to Timestep
  24,                                     !- Hour 1
  0,                                      !- Minute 1
  0;                                      !- Value Until Time 1

OS:Schedule:Day,
  {4c533375-b6b2-4b9e-967b-879b34622483}, !- Handle
  Medium Office Electric Equipment Winter Design Day Schedule 1, !- Name
  {46654a21-5ea4-4149-9639-235d00975fd5}, !- Schedule Type Limits Name
  ,                                       !- Interpolate to Timestep
  24,                                     !- Hour 1
  0,                                      !- Minute 1
  0;                                      !- Value Until Time 1

OS:Schedule:Rule,
  {492cc22d-c0d4-40ee-9fb7-2c7ec3dc441b}, !- Handle
  Medium Office Electric Equipment Schedule Weekdays Rule, !- Name
  {eb9b67bb-a6d7-4251-8f20-1bb6025437cb}, !- Schedule Ruleset Name
  1,                                      !- Rule Order
  {389a95d5-ca8c-4da5-bd0d-7f6aac82c0cb}, !- Day Schedule Name
  ,                                       !- Apply Sunday
  Yes,                                    !- Apply Monday
  Yes,                                    !- Apply Tuesday
  Yes,                                    !- Apply Wednesday
  Yes,                                    !- Apply Thursday
  Yes;                                    !- Apply Friday

OS:Schedule:Day,
  {389a95d5-ca8c-4da5-bd0d-7f6aac82c0cb}, !- Handle
  Medium Office Electric Equipment Weekdays Schedule, !- Name
  {46654a21-5ea4-4149-9639-235d00975fd5}, !- Schedule Type Limits Name
  ,                                       !- Interpolate to Timestep
  8,                                      !- Hour 1
  0,                                      !- Minute 1
  0.4,                                    !- Value Until Time 1
  12,                                     !- Hour 2
  0,                                      !- Minute 2
  0.9,                                    !- Value Until Time 2
  13,                                     !- Hour 3
  0,                                      !- Minute 3
  0.8,                                    !- Value Until Time 3
  17,                                     !- Hour 4
  0,                                      !- Minute 4
  0.9,                                    !- Value Until Time 4
  18,                                     !- Hour 5
  0,                                      !- Minute 5
  0.8,                                    !- Value Until Time 5
  20,                                     !- Hour 6
  0,                                      !- Minute 6
  0.6,                                    !- Value Until Time 6
  22,                                     !- Hour 7
  0,                                      !- Minute 7
  0.5,                                    !- Value Until Time 7
  24,                                     !- Hour 8
  0,                                      !- Minute 8
  0.4;                                    !- Value Until Time 8

OS:Schedule:Rule,
  {5e951129-7706-448c-ac7b-ecb155cd84e4}, !- Handle
  Medium Office Electric Equipment Schedule Saturday Rule, !- Name
  {eb9b67bb-a6d7-4251-8f20-1bb6025437cb}, !- Schedule Ruleset Name
  0,                                      !- Rule Order
  {27a0b751-d299-40b4-86a5-936b76ebab38}, !- Day Schedule Name
  ,                                       !- Apply Sunday
  ,                                       !- Apply Monday