
OS:Version,
  {3a5e9b82-04e4-45b4-ae79-0c3fe60f9409},  ! Handle
  0.7.6;                    ! Version Identifier

OS:Construction,
  {fc57ab2b-c073-4088-8bd3-3976e94998c1},  ! Handle
  Exterior Door,            ! Name
  ,                         ! Surface Rendering Name
  {62da6afd-3ea9-4b79-9534-87c6f50168cf},  ! Layer 1
  {224a6886-0564-4788-bacf-cde1575bd901};  ! Layer 2

OS:Material,
  {62da6afd-3ea9-4b79-9534-87c6f50168cf},  ! Handle
  F08 Metal surface,        ! Name
  Smooth,                   ! Roughness
  0.0008,                   ! Thickness {m}
  45.28,                    ! Conductivity {W/m-K}
  7824,                     ! Density {kg/m3}
  500;                      ! Specific Heat {J/kg-K}

OS:Material,
  {224a6886-0564-4788-bacf-cde1575bd901},  ! Handle
  I02 25mm insulation board,  ! Name
  MediumRough,              ! Roughness
  0.0254,                   ! Thickness {m}
  0.03,                     ! Conductivity {W/m-K}
  43,                       ! Density {kg/m3}
  1210;                     ! Specific Heat {J/kg-K}

OS:StandardsInformation:Construction,
  {5ebcd0a8-019f-4df3-a734-e5b694810f97},  ! Handle
  {fc57ab2b-c073-4088-8bd3-3976e94998c1},  ! Construction Name
  ,                         ! Intended Surface Type
  ,                         ! Construction Type
  1,                        ! Perturbable Layer
  Insulation,               ! Perturbable Layer Type
  ;                         ! Other Perturbable Layer Type

OS:ComponentData,
  {545abb32-da59-45af-92d4-a54dbb75f0c4},  ! Handle
  OS:ComponentData 1,       ! Name
  {330a9bb0-82a8-4bd8-a14f-9bcd94401038},  ! UUID
  {e697a28a-f111-4424-923b-8d8090e2c4ec},  ! Version UUID
  1340047736,               ! Creation Timestamp
  1340047736,               ! Version Timestamp
  {fc57ab2b-c073-4088-8bd3-3976e94998c1},  ! Name of Object 1
  {62da6afd-3ea9-4b79-9534-87c6f50168cf},  ! Name of Object 2
  {224a6886-0564-4788-bacf-cde1575bd901},  ! Name of Object 3
  {5ebcd0a8-019f-4df3-a734-e5b694810f97};  ! Name of Object 4

