
OS:Version,
  {d6dc339f-87a5-42a2-a02e-b67cc8828adf},  ! Handle
  0.7.6;                    ! Version Identifier

OS:SimulationControl,
  {dcdba3eb-d296-487d-a571-a69bcc6df047},  ! Handle
  Yes,                      ! Do Zone Sizing Calculation
  Yes,                      ! Do System Sizing Calculation
  ,                         ! Do Plant Sizing Calculation
  No,                       ! Run Simulation for Sizing Periods
  Yes;                      ! Run Simulation for Weather File Run Periods

OS:Timestep,
  {afdc8d13-eab5-463e-a8c2-6793e6d3f0ab},  ! Handle
  6;                        ! Number of Timesteps per Hour

OS:RunPeriod,
  {a659aec6-d551-4d85-865d-5be455454d47},  ! Handle
  OS:RunPeriod 1,           ! Name
  1,                        ! Begin Month
  1,                        ! Begin Day of Month
  12,                       ! End Month
  31,                       ! End Day of Month
  No,                       ! Use Weather File Holidays and Special Days
  No,                       ! Use Weather File Daylight Saving Period
  No,                       ! Apply Weekend Holiday Rule
  Yes,                      ! Use Weather File Rain Indicators
  Yes,                      ! Use Weather File Snow Indicators
  1;                        ! Number of Times Runperiod to be Repeated

OS:SurfaceConvectionAlgorithm:Inside,
  {ecbbb984-1d62-4bbb-9c0e-e6f72153d7bf},  ! Handle
  TARP;                     ! Algorithm

OS:SurfaceConvectionAlgorithm:Outside,
  {321aaf80-57e3-413a-80d9-13d8aacc9bc8},  ! Handle
  DOE-2;                    ! Algorithm

OS:HeatBalanceAlgorithm,
  {4253455c-4d3f-4572-820a-f4f3377cfbb0},  ! Handle
  ConductionTransferFunction,  ! Algorithm
  200;                      ! Surface Temperature Upper Limit {F}

OS:ZoneAirHeatBalanceAlgorithm,
  {5f97c8df-79b2-4ec8-8711-37f081692998},  ! Handle
  AnalyticalSolution;       ! Algorithm

OS:ConvergenceLimits,
  {7df5958e-69b1-4855-aff4-e1ab440252ce};  ! Handle

OS:ShadowCalculation,
  {8665712d-90bf-4271-80da-8004a3097b14},  ! Handle
  7,                        ! Calculation Frequency
  15000;                    ! Maximum Figures in Shadow Overlap Calculations

OS:Site,
  {1e1f5717-7835-432f-a79a-374b60267ce4},  ! Handle
  OS:Site 1,                ! Name
  41.77,                    ! Latitude {deg}
  -87.75,                   ! Longitude {deg}
  -6,                       ! Time Zone {hr}
  190,                      ! Elevation {m}
  ;                         ! Terrain

OS:Site:GroundTemperature:BuildingSurface,
  {0a5af09d-b2fa-4408-8c74-8ebb538ca6f4},  ! Handle
  19.527,                   ! January Ground Temperature {C}
  19.502,                   ! February Ground Temperature {C}
  19.536,                   ! March Ground Temperature {C}
  19.598,                   ! April Ground Temperature {C}
  20.002,                   ! May Ground Temperature {C}
  21.64,                    ! June Ground Temperature {C}
  22.225,                   ! July Ground Temperature {C}
  22.375,                   ! August Ground Temperature {C}
  21.449,                   ! September Ground Temperature {C}
  20.121,                   ! October Ground Temperature {C}
  19.802,                   ! November Ground Temperature {C}
  19.633;                   ! December Ground Temperature {C}

OS:Site:WaterMainsTemperature,
  {b36caa90-b571-45ff-8a6c-2a0490574e0d},  ! Handle
  Correlation,              ! Calculation Method
  ,                         ! Temperature Schedule Name
  9.69,                     ! Annual Average Outdoor Air Temperature {C}
  28.1;                     ! Maximum Difference In Monthly Average Outdoor Air Temperatures {deltaC}

OS:SizingPeriod:DesignDay,
  {5981e875-14aa-441d-a462-c4ccaf7e6a41},  ! Handle
  OS:SizingPeriod:DesignDay 1,  ! Name
  -20.6,                    ! Maximum Dry-Bulb Temperature {C}
  0,                        ! Daily Dry-Bulb Temperature Range {deltaC}
  -20.6,                    ! Humidity Indicating Conditions at Maximum Dry-Bulb {BasedOnField A3}
  99063,                    ! Barometric Pressure {Pa}
  4.9,                      ! Wind Speed {m/s}
  270,                      ! Wind Direction {deg}
  0,                        ! Sky Clearness
  0,                        ! Rain Indicator
  0,                        ! Snow Indicator
  21,                       ! Day of Month
  1,                        ! Month
  WinterDesignDay,          ! Day Type
  0,                        ! Daylight Saving Time Indicator
  WetBulb,                  ! Humidity Indicating Type
  ,                         ! Humidity Indicating Day Schedule Name
  DefaultMultipliers,       ! Dry-Bulb Temperature Range Modifier Type
  ,                         ! Dry-Bulb Temperature Range Modifier Schedule Name
  AshraeClearSky;           ! Solar Model Indicator

OS:SizingPeriod:DesignDay,
  {5badd66b-5226-4145-aeac-b684e8334622},  ! Handle
  OS:SizingPeriod:DesignDay 2,  ! Name
  33.2,                     ! Maximum Dry-Bulb Temperature {C}
  10.7,                     ! Daily Dry-Bulb Temperature Range {deltaC}
  23.8,                     ! Humidity Indicating Conditions at Maximum Dry-Bulb {BasedOnField A3}
  99063,                    ! Barometric Pressure {Pa}
  5.3,                      ! Wind Speed {m/s}
  230,                      ! Wind Direction {deg}
  1,                        ! Sky Clearness
  0,                        ! Rain Indicator
  0,                        ! Snow Indicator
  21,                       ! Day of Month
  7,                        ! Month
  SummerDesignDay,          ! Day Type
  0,                        ! Daylight Saving Time Indicator
  WetBulb,                  ! Humidity Indicating Type
  ,                         ! Humidity Indicating Day Schedule Name
  DefaultMultipliers,       ! Dry-Bulb Temperature Range Modifier Type
  ,                         ! Dry-Bulb Temperature Range Modifier Schedule Name
  AshraeClearSky;           ! Solar Model Indicator

OS:ScheduleTypeLimits,
  {e8afab56-a838-4d58-bc74-e58efda49831},  ! Handle
  Fraction,                 ! Name
  0,                        ! Lower Limit Value {BasedOnField A3}
  1,                        ! Upper Limit Value {BasedOnField A3}
  CONTINUOUS;               ! Numeric Type

OS:ScheduleTypeLimits,
  {15b61046-b878-4a68-b6b6-ff9cf63acde6},  ! Handle
  Any Number;               ! Name

OS:ScheduleTypeLimits,
  {6fb94fb2-e184-49f3-a925-b2818311b70a},  ! Handle
  On/Off,                   ! Name
  0,                        ! Lower Limit Value {BasedOnField A3}
  1,                        ! Upper Limit Value {BasedOnField A3}
  DISCRETE;                 ! Numeric Type

OS:ScheduleTypeLimits,
  {24787f78-85e4-46cd-bf29-d9a0c2be9b3b},  ! Handle
  Control Type,             ! Name
  0,                        ! Lower Limit Value {BasedOnField A3}
  4,                        ! Upper Limit Value {BasedOnField A3}
  DISCRETE;                 ! Numeric Type

OS:ScheduleTypeLimits,
  {ccfc296b-1352-402b-b415-1ae1b169a08c},  ! Handle
  Temperature,              ! Name
  -60,                      ! Lower Limit Value {BasedOnField A3}
  200,                      ! Upper Limit Value {BasedOnField A3}
  CONTINUOUS;               ! Numeric Type

OS:DefaultScheduleSet,
  {05b18d02-6047-4b69-aa25-35b8bd3acef3},  ! Handle
  Default Schedules,        ! Name
  ,                         ! Hours of Operation Schedule Name
  {6daffbf0-b52b-4b64-b3ab-f66f45f90b10},  ! Number of People Schedule Name
  {d14ed112-25be-4beb-a644-f5eb11fcc9dc},  ! People Activity Level Schedule Name
  {47aaebc0-e828-47a4-ae25-9e459e0c90de},  ! Lighting Schedule Name
  {2b722b32-16fd-4bb8-965e-5ee14569c71e},  ! Electric Equipment Schedule Name
  {71e2f8eb-b6f6-47f7-b823-3d43682d286d},  ! Gas Equipment Schedule Name
  {ab667e42-0330-4eab-a639-1bc1b39ac598},  ! Hot Water Equipment Schedule Name
  {5f841131-47b5-411e-baa8-d911cac93bc3},  ! Infiltration Schedule Name
  ,                         ! Steam Equipment Schedule Name
  ;                         ! Other Equipment Schedule Name

OS:Schedule:Ruleset,
  {6daffbf0-b52b-4b64-b3ab-f66f45f90b10},  ! Handle
  Medium Office Number of People Schedule,  ! Name
  ,                         ! Schedule Type Limits Name
  {aadde4db-0203-49bd-849f-6907f1985d8c},  ! Default Day Schedule Name
  {04ce08d2-b38b-4982-a7ca-18642ae65774};  ! Summer Design Day Schedule Name

OS:Schedule:Day,
  {aadde4db-0203-49bd-849f-6907f1985d8c},  ! Handle
  Medium Office Number of People All Other Days Schedule,  ! Name
  {e8afab56-a838-4d58-bc74-e58efda49831},  ! Schedule Type Limits Name
  ,                         ! Interpolate to Timestep
  24,                       ! Hour 1
  0,                        ! Minute 1
  0;                        ! Value Until Time 1

OS:Schedule:Day,
  {4ace949d-3d67-44f7-bc3c-cfa640d63e48},  ! Handle
  Medium Office Number of People Summer Design Day Schedule,  ! Name
  {e8afab56-a838-4d58-bc74-e58efda49831},  ! Schedule Type Limits Name
  ,                         ! Interpolate to Timestep
  6,                        ! Hour 1
  0,                        ! Minute 1
  0,                        ! Value Until Time 1
  22,                       ! Hour 2
  0,                        ! Minute 2
  1,                        ! Value Until Time 2
  24,                       ! Hour 3
  0,                        ! Minute 3
  0.05;                     ! Value Until Time 3

OS:Schedule:Day,
  {04ce08d2-b38b-4982-a7ca-18642ae65774},  ! Handle
  OS:Schedule:Day 1,        ! Name
  {e8afab56-a838-4d58-bc74-e58efda49831},  ! Schedule Type Limits Name
  ,                         ! Interpolate to Timestep
  6,                        ! Hour 1
  0,                        ! Minute 1
  0,                        ! Value Until Time 1
  22,                       ! Hour 2
  0,                        ! Minute 2
  1,                        ! Value Until Time 2
  24,                       ! Hour 3
  0,                        ! Minute 3
  0.05;                     ! Value Until Time 3

OS:Schedule:Rule,
  {feb38a31-b7f5-427b-aee5-d87ff8d43163},  ! Handle
  Medium Office Number of People Schedule Weekdays Rule,  ! Name
  {6daffbf0-b52b-4b64-b3ab-f66f45f90b10},  ! Schedule Ruleset Name
  1,                        ! Rule Order
  {e33a2d20-9a2f-4371-ab68-b47b9c057729},  ! Day Schedule Name
  ,                         ! Apply Sunday
  Yes,                      ! Apply Monday
  Yes,                      ! Apply Tuesday
  Yes,                      ! Apply Wednesday
  Yes,                      ! Apply Thursday
  Yes;                      ! Apply Friday

OS:Schedule:Day,
  {e33a2d20-9a2f-4371-ab68-b47b9c057729},  ! Handle
  Medium Office Number of People Weekdays Schedule,  ! Name
  {e8afab56-a838-4d58-bc74-e58efda49831},  ! Schedule Type Limits Name
  ,                         ! Interpolate to Timestep
  6,                        ! Hour 1
  0,                        ! Minute 1
  0,                        ! Value Until Time 1
  7,                        ! Hour 2
  0,                        ! Minute 2
  0.1,                      ! Value Until Time 2
  8,                        ! Hour 3
  0,                        ! Minute 3
  0.2,                      ! Value Until Time 3
  12,                       ! Hour 4
  0,                        ! Minute 4
  0.95,                     ! Value Until Time 4
  13,                       ! Hour 5
  0,                        ! Minute 5
  0.5,                      ! Value Until Time 5
  17,                       ! Hour 6
  0,                        ! Minute 6
  0.95,                     ! Value Until Time 6
  18,                       ! Hour 7
  0,                        ! Minute 7
  0.7,                      ! Value Until Time 7
  20,                       ! Hour 8
  0,                        ! Minute 8
  0.4,                      ! Value Until Time 8
  22,                       ! Hour 9
  0,                        ! Minute 9
  0.1,                      ! Value Until Time 9
  24,                       ! Hour 10
  0,                        ! Minute 10
  0.05;                     ! Value Until Time 10

OS:Schedule:Rule,
  {8097b939-ea15-4322-baf6-30c5cd4a311a},  ! Handle
  Medium Office Number of People Schedule Saturday Rule,  ! Name
  {6daffbf0-b52b-4b64-b3ab-f66f45f90b10},  ! Schedule Ruleset Name
  0,                        ! Rule Order
  {22bf0bc2-b155-418f-998d-b201126ff0bd},  ! Day Schedule Name
  ,                         ! Apply Sunday
  ,                         ! Apply Monday
  ,                         ! Apply Tuesday
  ,                         ! Apply Wednesday
  ,                         ! Apply Thursday
  ,                         ! Apply Friday
  Yes;                      ! Apply Saturday

OS:Schedule:Day,
  {22bf0bc2-b155-418f-998d-b201126ff0bd},  ! Handle
  Medium Office Number of People Saturday Schedule,  ! Name
  {e8afab56-a838-4d58-bc74-e58efda49831},  ! Schedule Type Limits Name
  ,                         ! Interpolate to Timestep
  6,                        ! Hour 1
  0,                        ! Minute 1
  0,                        ! Value Until Time 1
  8,                        ! Hour 2
  0,                        ! Minute 2
  0.1,                      ! Value Until Time 2
  14,                       ! Hour 3
  0,                        ! Minute 3
  0.5,                      ! Value Until Time 3
  17,                       ! Hour 4
  0,                        ! Minute 4
  0.1,                      ! Value Until Time 4
  24,                       ! Hour 5
  0,                        ! Minute 5
  0;                        ! Value Until Time 5

OS:Schedule:Ruleset,
  {d14ed112-25be-4beb-a644-f5eb11fcc9dc},  ! Handle
  Medium Office People Activity Level Schedule,  ! Name
  ,                         ! Schedule Type Limits Name
  {817f2a29-3d79-4d26-b30f-2293febbdd5b};  ! Default Day Schedule Name

OS:Schedule:Day,
  {817f2a29-3d79-4d26-b30f-2293febbdd5b},  ! Handle
  Medium Office People Activity Level All Days Schedule,  ! Name
  {15b61046-b878-4a68-b6b6-ff9cf63acde6},  ! Schedule Type Limits Name
  ,                         ! Interpolate to Timestep
  24,                       ! Hour 1
  0,                        ! Minute 1
  120;                      ! Value Until Time 1

OS:Schedule:Ruleset,
  {47aaebc0-e828-47a4-ae25-9e459e0c90de},  ! Handle
  Medium Office Lighting Schedule,  ! Name
  ,                         ! Schedule Type Limits Name
  {81c9def6-9422-4a12-9d3a-5a507fad3eb7},  ! Default Day Schedule Name
  {8cadaf18-2a7e-4804-82f6-9fedf1db076f},  ! Summer Design Day Schedule Name
  {b23d764c-a40a-4020-a0e2-acdf9304ba89};  ! Winter Design Day Schedule Name

OS:Schedule:Day,
  {81c9def6-9422-4a12-9d3a-5a507fad3eb7},  ! Handle
  Medium Office Lighting All Other Days Schedule,  ! Name
  {e8afab56-a838-4d58-bc74-e58efda49831},  ! Schedule Type Limits Name
  ,                         ! Interpolate to Timestep
  24,                       ! Hour 1
  0,                        ! Minute 1
  0.05;                     ! Value Until Time 1

OS:Schedule:Day,
  {5a937332-b299-4118-a71a-982052376ccc},  ! Handle
  Medium Office Lighting Summer Design Day Schedule,  ! Name
  {e8afab56-a838-4d58-bc74-e58efda49831},  ! Schedule Type Limits Name
  ,                         ! Interpolate to Timestep
  6,                        ! Hour 1
  0,                        ! Minute 1
  1,                        ! Value Until Time 1
  24,                       ! Hour 2
  0,                        ! Minute 2
  0;                        ! Value Until Time 2

OS:Schedule:Day,
  {8cadaf18-2a7e-4804-82f6-9fedf1db076f},  ! Handle
  OS:Schedule:Day 2,        ! Name
  {e8afab56-a838-4d58-bc74-e58efda49831},  ! Schedule Type Limits Name
  ,                         ! Interpolate to Timestep
  6,                        ! Hour 1
  0,                        ! Minute 1
  1,                        ! Value Until Time 1
  24,                       ! Hour 2
  0,                        ! Minute 2
  0;                        ! Value Until Time 2

OS:Schedule:Day,
  {f04af3ee-a1a0-446a-b9e1-2e203d2ac772},  ! Handle
  Medium Office Lighting Winter Design Day Schedule,  ! Name
  {e8afab56-a838-4d58-bc74-e58efda49831},  ! Schedule Type Limits Name
  ,                         ! Interpolate to Timestep
  24,                       ! Hour 1
  0,                        ! Minute 1
  0;                        ! Value Until Time 1

OS:Schedule:Day,
  {b23d764c-a40a-4020-a0e2-acdf9304ba89},  ! Handle
  OS:Schedule:Day 3,        ! Name
  {e8afab56-a838-4d58-bc74-e58efda49831},  ! Schedule Type Limits Name
  ,                         ! Interpolate to Timestep
  24,                       ! Hour 1
  0,                        ! Minute 1
  0;                        ! Value Until Time 1

OS:Schedule:Rule,
  {f6f2509d-7806-4c82-b7aa-ce9a2c6218a3},  ! Handle
  Medium Office Lighting Schedule Weekdays Rule,  ! Name
  {47aaebc0-e828-47a4-ae25-9e459e0c90de},  ! Schedule Ruleset Name
  1,                        ! Rule Order
  {3f54b831-99f2-4947-9edd-0f0874adb008},  ! Day Schedule Name
  ,                         ! Apply Sunday
  Yes,                      ! Apply Monday
  Yes,                      ! Apply Tuesday
  Yes,                      ! Apply Wednesday
  Yes,                      ! Apply Thursday
  Yes;                      ! Apply Friday

OS:Schedule:Day,
  {3f54b831-99f2-4947-9edd-0f0874adb008},  ! Handle
  Medium Office Lighting Weekdays Schedule,  ! Name
  {e8afab56-a838-4d58-bc74-e58efda49831},  ! Schedule Type Limits Name
  ,                         ! Interpolate to Timestep
  5,                        ! Hour 1
  0,                        ! Minute 1
  0.05,                     ! Value Until Time 1
  7,                        ! Hour 2
  0,                        ! Minute 2
  0.1,                      ! Value Until Time 2
  8,                        ! Hour 3
  0,                        ! Minute 3
  0.3,                      ! Value Until Time 3
  17,                       ! Hour 4
  0,                        ! Minute 4
  0.9,                      ! Value Until Time 4
  18,                       ! Hour 5
  0,                        ! Minute 5
  0.7,                      ! Value Until Time 5
  20,                       ! Hour 6
  0,                        ! Minute 6
  0.5,                      ! Value Until Time 6
  22,                       ! Hour 7
  0,                        ! Minute 7
  0.3,                      ! Value Until Time 7
  23,                       ! Hour 8
  0,                        ! Minute 8
  0.1,                      ! Value Until Time 8
  24,                       ! Hour 9
  0,                        ! Minute 9
  0.05;                     ! Value Until Time 9

OS:Schedule:Rule,
  {ceb3b70e-7e62-48f0-987e-8a63d1d411c2},  ! Handle
  Medium Office Lighting Schedule Saturday Rule,  ! Name
  {47aaebc0-e828-47a4-ae25-9e459e0c90de},  ! Schedule Ruleset Name
  0,                        ! Rule Order
  {19e2f8ab-7e77-4c66-bbe5-4656bff5acb5},  ! Day Schedule Name
  ,                         ! Apply Sunday
  ,                         ! Apply Monday
  ,                         ! Apply Tuesday
  ,                         ! Apply Wednesday
  ,                         ! Apply Thursday
  ,                         ! Apply Friday
  Yes;                      ! Apply Saturday

OS:Schedule:Day,
  {19e2f8ab-7e77-4c66-bbe5-4656bff5acb5},  ! Handle
  Medium Office Lighting Saturday Schedule,  ! Name
  {e8afab56-a838-4d58-bc74-e58efda49831},  ! Schedule Type Limits Name
  ,                         ! Interpolate to Timestep
  6,                        ! Hour 1
  0,                        ! Minute 1
  0.05,                     ! Value Until Time 1
  8,                        ! Hour 2
  0,                        ! Minute 2
  0.1,                      ! Value Until Time 2
  14,                       ! Hour 3
  0,                        ! Minute 3
  0.5,                      ! Value Until Time 3
  17,                       ! Hour 4
  0,                        ! Minute 4
  0.15,                     ! Value Until Time 4
  24,                       ! Hour 5
  0,                        ! Minute 5
  0.05;                     ! Value Until Time 5

OS:Schedule:Ruleset,
  {2b722b32-16fd-4bb8-965e-5ee14569c71e},  ! Handle
  Medium Office Electric Equipment Schedule,  ! Name
  ,                         ! Schedule Type Limits Name
  {fb4b72db-67f5-4456-b5df-f29c4485db6a},  ! Default Day Schedule Name
  {b70e59d9-fe52-4b5f-8d8a-fd7421b703cb},  ! Summer Design Day Schedule Name
  {bd2c17fe-4bf1-4fe3-accb-7f2173c84523};  ! Winter Design Day Schedule Name

OS:Schedule:Day,
  {fb4b72db-67f5-4456-b5df-f29c4485db6a},  ! Handle
  Medium Office Electric Equipment All Other Days Schedule,  ! Name
  {e8afab56-a838-4d58-bc74-e58efda49831},  ! Schedule Type Limits Name
  ,                         ! Interpolate to Timestep
  24,                       ! Hour 1
  0,                        ! Minute 1
  0.3;                      ! Value Until Time 1

OS:Schedule:Day,
  {33fc2304-3530-4c3b-91d4-75e470e1ed07},  ! Handle
  Medium Office Electric Equipment Summer Design Day Schedule,  ! Name
  {e8afab56-a838-4d58-bc74-e58efda49831},  ! Schedule Type Limits Name
  ,                         ! Interpolate to Timestep
  6,                        ! Hour 1
  0,                        ! Minute 1
  1,                        ! Value Until Time 1
  24,                       ! Hour 2
  0,                        ! Minute 2
  0;                        ! Value Until Time 2

OS:Schedule:Day,
  {b70e59d9-fe52-4b5f-8d8a-fd7421b703cb},  ! Handle
  OS:Schedule:Day 4,        ! Name
  {e8afab56-a838-4d58-bc74-e58efda49831},  ! Schedule Type Limits Name
  ,                         ! Interpolate to Timestep
  6,                        ! Hour 1
  0,                        ! Minute 1
  1,                        ! Value Until Time 1
  24,                       ! Hour 2
  0,                        ! Minute 2
  0;                        ! Value Until Time 2

OS:Schedule:Day,
  {1515aea8-d560-43dc-9048-753abfd2ed05},  ! Handle
  Medium Office Electric Equipment Winter Design Day Schedule,  ! Name
  {e8afab56-a838-4d58-bc74-e58efda49831},  ! Schedule Type Limits Name
  ,                         ! Interpolate to Timestep
  24,                       ! Hour 1
  0,                        ! Minute 1
  0;                        ! Value Until Time 1

OS:Schedule:Day,
  {bd2c17fe-4bf1-4fe3-accb-7f2173c84523},  ! Handle
  OS:Schedule:Day 5,        ! Name
  {e8afab56-a838-4d58-bc74-e58efda49831},  ! Schedule Type Limits Name
  ,                         ! Interpolate to Timestep
  24,                       ! Hour 1
  0,                        ! Minute 1
  0;                        ! Value Until Time 1

OS:Schedule:Rule,
  {9f89c8fe-827a-474c-bf6d-88f208dace10},  ! Handle
  Medium Office Electric Equipment Schedule Weekdays Rule,  ! Name
  {2b722b32-16fd-4bb8-965e-5ee14569c71e},  ! Schedule Ruleset Name
  1,                        ! Rule Order
  {70776dcc-4512-433a-b164-4a925b92008a},  ! Day Schedule Name
  ,                         ! Apply Sunday
  Yes,                      ! Apply Monday
  Yes,                      ! Apply Tuesday
  Yes,                      ! Apply Wednesday
  Yes,                      ! Apply Thursday
  Yes;                      ! Apply Friday

OS:Schedule:Day,
  {70776dcc-4512-433a-b164-4a925b92008a},  ! Handle
  Medium Office Electric Equipment Weekdays Schedule,  ! Name
  {e8afab56-a838-4d58-bc74-e58efda49831},  ! Schedule Type Limits Name
  ,                         ! Interpolate to Timestep
  8,                        ! Hour 1
  0,                        ! Minute 1
  0.4,                      ! Value Until Time 1
  12,                       ! Hour 2
  0,                        ! Minute 2
  0.9,                      ! Value Until Time 2
  13,                       ! Hour 3
  0,                        ! Minute 3
  0.8,                      ! Value Until Time 3
  17,                       ! Hour 4
  0,                        ! Minute 4
  0.9,                      ! Value Until Time 4
  18,                       ! Hour 5
  0,                        ! Minute 5
  0.8,                      ! Value Until Time 5
  20,                       ! Hour 6
  0,                        ! Minute 6
  0.6,                      ! Value Until Time 6
  22,                       ! Hour 7
  0,                        ! Minute 7
  0.5,                      ! Value Until Time 7
  24,                       ! Hour 8
  0,                        ! Minute 8
  0.4;                      ! Value Until Time 8

OS:Schedule:Rule,
  {cf46200d-d2b4-48b9-8e26-46f1385c331c},  ! Handle
  Medium Office Electric Equipment Schedule Saturday Rule,  ! Name
  {2b722b32-16fd-4bb8-965e-5ee14569c71e},  ! Schedule Ruleset Name
  0,                        ! Rule Order
  {ea0ed46c-1fc4-4209-b708-64eb007f4b75},  ! Day Schedule Name
  ,                         ! Apply Sunday
  ,                         ! Apply Monday
  ,                         ! Apply Tuesday
  ,                         ! Apply Wednesday
  ,                         ! Apply Thursday
  ,                         ! Apply Friday
  Yes;                      ! Apply Saturday

OS:Schedule:Day,
  {ea0ed46c-1fc4-4209-b708-64eb007f4b75},  ! Handle
  Medium Office Electric Equipment Saturday Schedule,  ! Name
  {e8afab56-a838-4d58-bc74-e58efda49831},  ! Schedule Type Limits Name
  ,                         ! Interpolate to Timestep
  6,                        ! Hour 1
  0,                        ! Minute 1
  0.3,                      ! Value Until Time 1
  8,                        ! Hour 2
  0,                        ! Minute 2
  0.4,                      ! Value Until Time 2
  14,                       ! Hour 3
  0,                        ! Minute 3
  0.5,                      ! Value Until Time 3
  17,                       ! Hour 4
  0,                        ! Minute 4
  0.35,                     ! Value Until Time 4
  24,                       ! Hour 5
  0,                        ! Minute 5
  0.3;                      ! Value Until Time 5

OS:Schedule:Ruleset,
  {71e2f8eb-b6f6-47f7-b823-3d43682d286d},  ! Handle
  Medium Office Gas Equipment Schedule,  ! Name
  ,                         ! Schedule Type Limits Name
  {4954301e-40be-4e41-a816-cb410f2f06e3},  ! Default Day Schedule Name
  {f8fc0a04-a0e6-4ad7-a54d-015d8c0286c5},  ! Summer Design Day Schedule Name
  {ce1d31b1-ec82-4585-9651-68e4917fbe4b};  ! Winter Design Day Schedule Name

OS:Schedule:Day,
  {4954301e-40be-4e41-a816-cb410f2f06e3},  ! Handle
  Medium Office Gas Equipment All Other Days Schedule,  ! Name
  {e8afab56-a838-4d58-bc74-e58efda49831},  ! Schedule Type Limits Name
  ,                         ! Interpolate to Timestep
  24,                       ! Hour 1
  0,                        ! Minute 1
  0.3;                      ! Value Until Time 1

OS:Schedule:Day,
  {e697cb58-8e6e-4419-b907-2f3733623a49},  ! Handle
  Medium Office Gas Equipment Summer Design Day Schedule,  ! Name
  {e8afab56-a838-4d58-bc74-e58efda49831},  ! Schedule Type Limits Name
  ,                         ! Interpolate to Timestep
  6,                        ! Hour 1
  0,                        ! Minute 1
  1,                        ! Value Until Time 1
  24,                       ! Hour 2
  0,                        ! Minute 2
  0;                        ! Value Until Time 2

OS:Schedule:Day,
  {f8fc0a04-a0e6-4ad7-a54d-015d8c0286c5},  ! Handle
  OS:Schedule:Day 6,        ! Name
  {e8afab56-a838-4d58-bc74-e58efda49831},  ! Schedule Type Limits Name
  ,                         ! Interpolate to Timestep
  6,                        ! Hour 1
  0,                        ! Minute 1
  1,                        ! Value Until Time 1
  24,                       ! Hour 2
  0,                        ! Minute 2
  0;                        ! Value Until Time 2

OS:Schedule:Day,
  {c1dfcf6b-fd63-46ac-a3f6-fed3a826c5a8},  ! Handle
  Medium Office Gas Equipment Winter Design Day Schedule,  ! Name
  {e8afab56-a838-4d58-bc74-e58efda49831},  ! Schedule Type Limits Name
  ,                         ! Interpolate to Timestep
  24,                       ! Hour 1
  0,                        ! Minute 1
  0;                        ! Value Until Time 1

OS:Schedule:Day,
  {ce1d31b1-ec82-4585-9651-68e4917fbe4b},  ! Handle
  OS:Schedule:Day 7,        ! Name
  {e8afab56-a838-4d58-bc74-e58efda49831},  ! Schedule Type Limits Name
  ,                         ! Interpolate to Timestep
  24,                       ! Hour 1
  0,                        ! Minute 1
  0;                        ! Value Until Time 1

OS:Schedule:Rule,
  {e4185755-c9df-4a5a-b402-eedc4c814a33},  ! Handle
  Medium Office Gas Equipment Schedule Weekdays Rule,  ! Name
  {71e2f8eb-b6f6-47f7-b823-3d43682d286d},  ! Schedule Ruleset Name
  1,                        ! Rule Order
  {473ad899-2665-4554-b8cd-8ad0a3900ac7},  ! Day Schedule Name
  ,                         ! Apply Sunday
  Yes,                      ! Apply Monday
  Yes,                      ! Apply Tuesday
  Yes,                      ! Apply Wednesday
  Yes,                      ! Apply Thursday
  Yes;                      ! Apply Friday

OS:Schedule:Day,
  {473ad899-2665-4554-b8cd-8ad0a3900ac7},  ! Handle
  Medium Office Gas Equipment Weekdays Schedule,  ! Name
  {e8afab56-a838-4d58-bc74-e58efda49831},  ! Schedule Type Limits Name
  ,                         ! Interpolate to Timestep