
OS:Version,
  {bef35c9e-6d23-4756-baea-f35d2649b519}, !- Handle
  1.3.4;                                  !- Version Identifier

OS:Construction,
  {28a7d72d-7f5c-4a5e-93db-ca53f95d0789}, !- Handle
  Slab,                                   !- Name
  ,                                       !- Surface Rendering Name
  {653d769a-bb30-455b-bb2f-8aec0a0c6d43}, !- Layer 1
  {36b8ccf1-ab92-4f0a-8842-16a6a3288525}; !- Layer 2

OS:Material,
  {653d769a-bb30-455b-bb2f-8aec0a0c6d43}, !- Handle
  MAT-CC05 8 HW CONCRETE,                 !- Name
  Rough,                                  !- Roughness
  0.2032,                                 !- Thickness {m}
  1.311,                                  !- Conductivity {W/m-K}
  2240,                                   !- Density {kg/m3}
  836.8,                                  !- Specific Heat {J/kg-K}
  0.9,                                    !- Thermal Absorptance
  0.7,                                    !- Solar Absorptance
  0.7;                                    !- Visible Absorptance

OS:Material:NoMass,
  {36b8ccf1-ab92-4f0a-8842-16a6a3288525}, !- Handle
  CP02 CARPET PAD,                        !- Name
  VeryRough,                              !- Roughness
  0.2165,                                 !- Thermal Resistance {m2-K/W}
  0.9,                                    !- Thermal Absorptance
  0.7,                                    !- Solar Absorptance
  0.8;                                    !- Visible Absorptance

OS:ComponentData,
  {7558725b-3931-4a49-83c6-29701e1ac813}, !- Handle
  Component Data 1,                       !- Name
  {7972bd88-76a3-431e-93f3-b9125b113bd0}, !- UUID
  {bb265125-124e-4345-b56f-5e215dda0188}, !- Version UUID
  1400608095,                             !- Creation Timestamp
  1400608095,                             !- Version Timestamp
  {28a7d72d-7f5c-4a5e-93db-ca53f95d0789}, !- Name of Object 1
  {653d769a-bb30-455b-bb2f-8aec0a0c6d43}, !- Name of Object 2
  {36b8ccf1-ab92-4f0a-8842-16a6a3288525}; !- Name of Object 3

