
OS:Version,
  {a95aaf79-f124-449f-8661-3ca8bf257d36}, !- Handle
  0.10.3;                                 !- Version Identifier

OS:SimulationControl,
  {809a171a-48f5-4133-8854-cf6e756db34f}, !- Handle
  Yes,                                    !- Do Zone Sizing Calculation
  Yes,                                    !- Do System Sizing Calculation
  ,                                       !- Do Plant Sizing Calculation
  No,                                     !- Run Simulation for Sizing Periods
  Yes;                                    !- Run Simulation for Weather File Run Periods

OS:Timestep,
  {0cf134fc-b1f1-4914-a874-e8d6ae31588c}, !- Handle
  6;                                      !- Number of Timesteps per Hour

OS:RunPeriod,
  {7b17dac4-931d-4731-b42c-7ccbe9e042c5}, !- Handle
  Run Period 1,                           !- Name
  1,                                      !- Begin Month
  1,                                      !- Begin Day of Month
  12,                                     !- End Month
  31,                                     !- End Day of Month
  No,                                     !- Use Weather File Holidays and Special Days
  No,                                     !- Use Weather File Daylight Saving Period
  No,                                     !- Apply Weekend Holiday Rule
  Yes,                                    !- Use Weather File Rain Indicators
  Yes,                                    !- Use Weather File Snow Indicators
  1;                                      !- Number of Times Runperiod to be Repeated

OS:SurfaceConvectionAlgorithm:Inside,
  {cf7ac759-0bd3-4271-b88c-7d04a90121ef}, !- Handle
  TARP;                                   !- Algorithm

OS:SurfaceConvectionAlgorithm:Outside,
  {a8480117-4f15-4652-b3e4-77b7c227424a}, !- Handle
  DOE-2;                                  !- Algorithm

OS:HeatBalanceAlgorithm,
  {ac76955c-7b99-4931-9d08-1d790ffdaf71}, !- Handle
  ConductionTransferFunction,             !- Algorithm
  200;                                    !- Surface Temperature Upper Limit {F}

OS:ZoneAirHeatBalanceAlgorithm,
  {2ccf5300-6feb-4eaa-9182-3030127bee31}, !- Handle
  AnalyticalSolution;                     !- Algorithm

OS:ConvergenceLimits,
  {73c17254-9fe1-4cca-a2f3-12a19f40eeca}; !- Handle

OS:ShadowCalculation,
  {8ef90a9b-e109-4638-8121-795db4ea87a5}, !- Handle
  7,                                      !- Calculation Frequency
  15000;                                  !- Maximum Figures in Shadow Overlap Calculations

OS:Site,
  {4f5749a0-5e3a-459e-8337-deb9b3f85cef}, !- Handle
  Site 1,                                 !- Name
  41.77,                                  !- Latitude {deg}
  -87.75,                                 !- Longitude {deg}
  -6,                                     !- Time Zone {hr}
  190,                                    !- Elevation {m}
  ;                                       !- Terrain

OS:Site:GroundTemperature:BuildingSurface,
  {0c7db36f-26ae-432b-ba65-885e6bf3d9a8}, !- Handle
  19.527,                                 !- January Ground Temperature {C}
  19.502,                                 !- February Ground Temperature {C}
  19.536,                                 !- March Ground Temperature {C}
  19.598,                                 !- April Ground Temperature {C}
  20.002,                                 !- May Ground Temperature {C}
  21.64,                                  !- June Ground Temperature {C}
  22.225,                                 !- July Ground Temperature {C}
  22.375,                                 !- August Ground Temperature {C}
  21.449,                                 !- September Ground Temperature {C}
  20.121,                                 !- October Ground Temperature {C}
  19.802,                                 !- November Ground Temperature {C}
  19.633;                                 !- December Ground Temperature {C}

OS:Site:WaterMainsTemperature,
  {ecfe000b-791f-4944-898f-54349193dda7}, !- Handle
  Correlation,                            !- Calculation Method
  ,                                       !- Temperature Schedule Name
  9.69,                                   !- Annual Average Outdoor Air Temperature {C}
  28.1;                                   !- Maximum Difference In Monthly Average Outdoor Air Temperatures {deltaC}

OS:SizingPeriod:DesignDay,
  {a12be3fb-9e2d-4fd1-a743-1feeb2e5fe4b}, !- Handle
  Sizing Period Design Day 1,             !- Name
  -20.6,                                  !- Maximum Dry-Bulb Temperature {C}
  0,                                      !- Daily Dry-Bulb Temperature Range {deltaC}
  -20.6,                                  !- Humidity Indicating Conditions at Maximum Dry-Bulb {BasedOnField A3}
  99063,                                  !- Barometric Pressure {Pa}
  4.9,                                    !- Wind Speed {m/s}
  270,                                    !- Wind Direction {deg}
  0,                                      !- Sky Clearness
  0,                                      !- Rain Indicator
  0,                                      !- Snow Indicator
  21,                                     !- Day of Month
  1,                                      !- Month
  WinterDesignDay,                        !- Day Type
  0,                                      !- Daylight Saving Time Indicator
  WetBulb,                                !- Humidity Indicating Type
  ,                                       !- Humidity Indicating Day Schedule Name
  DefaultMultipliers,                     !- Dry-Bulb Temperature Range Modifier Type
  ,                                       !- Dry-Bulb Temperature Range Modifier Schedule Name
  AshraeClearSky;                         !- Solar Model Indicator

OS:SizingPeriod:DesignDay,
  {60bc13b1-bcc8-4aa0-8818-961a4c7a4217}, !- Handle
  Sizing Period Design Day 2,             !- Name
  33.2,                                   !- Maximum Dry-Bulb Temperature {C}
  10.7,                                   !- Daily Dry-Bulb Temperature Range {deltaC}
  23.8,                                   !- Humidity Indicating Conditions at Maximum Dry-Bulb {BasedOnField A3}
  99063,                                  !- Barometric Pressure {Pa}
  5.3,                                    !- Wind Speed {m/s}
  230,                                    !- Wind Direction {deg}
  1,                                      !- Sky Clearness
  0,                                      !- Rain Indicator
  0,                                      !- Snow Indicator
  21,                                     !- Day of Month
  7,                                      !- Month
  SummerDesignDay,                        !- Day Type
  0,                                      !- Daylight Saving Time Indicator
  WetBulb,                                !- Humidity Indicating Type
  ,                                       !- Humidity Indicating Day Schedule Name
  DefaultMultipliers,                     !- Dry-Bulb Temperature Range Modifier Type
  ,                                       !- Dry-Bulb Temperature Range Modifier Schedule Name
  AshraeClearSky;                         !- Solar Model Indicator

OS:ScheduleTypeLimits,
  {b62c8957-8e48-48ee-a39e-d1a03c38e4fb}, !- Handle
  Temperature,                            !- Name
  -60,                                    !- Lower Limit Value {BasedOnField A4}
  200,                                    !- Upper Limit Value {BasedOnField A4}
  CONTINUOUS,                             !- Numeric Type
  Temperature;                            !- Unit Type

OS:DefaultScheduleSet,
  {5ba6ba94-4079-4619-8574-43025d72c8a8}, !- Handle
  Default Schedules,                      !- Name
  ,                                       !- Hours of Operation Schedule Name
  {511458f3-cfb4-4f98-9d27-a6032c6d91b9}, !- Number of People Schedule Name
  {f3d47bda-9dd5-464f-a69d-fa19a2b41b22}, !- People Activity Level Schedule Name
  {92f4dda2-c013-4dfc-97f9-6a5d1ce77a2e}, !- Lighting Schedule Name
  {26c269db-9969-436b-a5fd-0c28ccbc3a9a}, !- Electric Equipment Schedule Name
  {e0f9b3ad-ee12-4b5c-9ca0-5f0f679cfa00}, !- Gas Equipment Schedule Name
  {03fa5571-6322-471b-a0c5-0cf1227174af}, !- Hot Water Equipment Schedule Name
  {4e813ccc-8e94-4381-9304-0fa55b8eee57}, !- Infiltration Schedule Name
  ,                                       !- Steam Equipment Schedule Name
  ;                                       !- Other Equipment Schedule Name

OS:Schedule:Ruleset,
  {511458f3-cfb4-4f98-9d27-a6032c6d91b9}, !- Handle
  Medium Office Number of People Schedule, !- Name
  {2f751e8e-3d02-44c3-b659-54260252eaa9}, !- Schedule Type Limits Name
  {5953934f-7d0c-419a-852c-a464a6228969}, !- Default Day Schedule Name
  {8f58aeeb-65ac-444c-a50b-af920bd070a6}; !- Summer Design Day Schedule Name

OS:Schedule:Day,
  {5953934f-7d0c-419a-852c-a464a6228969}, !- Handle
  Medium Office Number of People All Other Days Schedule, !- Name
  {2f751e8e-3d02-44c3-b659-54260252eaa9}, !- Schedule Type Limits Name
  ,                                       !- Interpolate to Timestep
  24,                                     !- Hour 1
  0,                                      !- Minute 1
  0;                                      !- Value Until Time 1

OS:Schedule:Day,
  {c17402f3-23a2-4f50-9e19-37082e9cd3e1}, !- Handle
  Medium Office Number of People Summer Design Day Schedule, !- Name
  ,                                       !- Schedule Type Limits Name
  ,                                       !- Interpolate to Timestep
  6,                                      !- Hour 1
  0,                                      !- Minute 1
  0,                                      !- Value Until Time 1
  22,                                     !- Hour 2
  0,                                      !- Minute 2
  1,                                      !- Value Until Time 2
  24,                                     !- Hour 3
  0,                                      !- Minute 3
  0.05;                                   !- Value Until Time 3

OS:Schedule:Day,
  {8f58aeeb-65ac-444c-a50b-af920bd070a6}, !- Handle
  Medium Office Number of People Summer Design Day Schedule 1, !- Name
  {2f751e8e-3d02-44c3-b659-54260252eaa9}, !- Schedule Type Limits Name
  ,                                       !- Interpolate to Timestep
  6,                                      !- Hour 1
  0,                                      !- Minute 1
  0,                                      !- Value Until Time 1
  22,                                     !- Hour 2
  0,                                      !- Minute 2
  1,                                      !- Value Until Time 2
  24,                                     !- Hour 3
  0,                                      !- Minute 3
  0.05;                                   !- Value Until Time 3

OS:Schedule:Rule,
  {b10d40bf-0a12-472a-932d-c57b8530a676}, !- Handle
  Medium Office Number of People Schedule Weekdays Rule, !- Name
  {511458f3-cfb4-4f98-9d27-a6032c6d91b9}, !- Schedule Ruleset Name
  1,                                      !- Rule Order
  {6997e55e-90e7-45b3-8abe-3a65075fb83c}, !- Day Schedule Name
  ,                                       !- Apply Sunday
  Yes,                                    !- Apply Monday
  Yes,                                    !- Apply Tuesday
  Yes,                                    !- Apply Wednesday
  Yes,                                    !- Apply Thursday
  Yes;                                    !- Apply Friday

OS:Schedule:Day,
  {6997e55e-90e7-45b3-8abe-3a65075fb83c}, !- Handle
  Medium Office Number of People Weekdays Schedule, !- Name
  {2f751e8e-3d02-44c3-b659-54260252eaa9}, !- Schedule Type Limits Name
  ,                                       !- Interpolate to Timestep
  6,                                      !- Hour 1
  0,                                      !- Minute 1
  0,                                      !- Value Until Time 1
  7,                                      !- Hour 2
  0,                                      !- Minute 2
  0.1,                                    !- Value Until Time 2
  8,                                      !- Hour 3
  0,                                      !- Minute 3
  0.2,                                    !- Value Until Time 3
  12,                                     !- Hour 4
  0,                                      !- Minute 4
  0.95,                                   !- Value Until Time 4
  13,                                     !- Hour 5
  0,                                      !- Minute 5
  0.5,                                    !- Value Until Time 5
  17,                                     !- Hour 6
  0,                                      !- Minute 6
  0.95,                                   !- Value Until Time 6
  18,                                     !- Hour 7
  0,                                      !- Minute 7
  0.7,                                    !- Value Until Time 7
  20,                                     !- Hour 8
  0,                                      !- Minute 8
  0.4,                                    !- Value Until Time 8
  22,                                     !- Hour 9
  0,                                      !- Minute 9
  0.1,                                    !- Value Until Time 9
  24,                                     !- Hour 10
  0,                                      !- Minute 10
  0.05;                                   !- Value Until Time 10

OS:Schedule:Rule,
  {589b709e-a82a-426a-8df6-802b6df9cff1}, !- Handle
  Medium Office Number of People Schedule Saturday Rule, !- Name
  {511458f3-cfb4-4f98-9d27-a6032c6d91b9}, !- Schedule Ruleset Name
  0,                                      !- Rule Order
  {fee1ddbc-419e-45b7-ab75-187edfbdb378}, !- Day Schedule Name
  ,                                       !- Apply Sunday
  ,                                       !- Apply Monday
  ,                                       !- Apply Tuesday
  ,                                       !- Apply Wednesday
  ,                                       !- Apply Thursday
  ,                                       !- Apply Friday
  Yes;                                    !- Apply Saturday

OS:Schedule:Day,
  {fee1ddbc-419e-45b7-ab75-187edfbdb378}, !- Handle
  Medium Office Number of People Saturday Schedule, !- Name
  {2f751e8e-3d02-44c3-b659-54260252eaa9}, !- Schedule Type Limits Name
  ,                                       !- Interpolate to Timestep
  6,                                      !- Hour 1
  0,                                      !- Minute 1
  0,                                      !- Value Until Time 1
  8,                                      !- Hour 2
  0,                                      !- Minute 2
  0.1,                                    !- Value Until Time 2
  14,                                     !- Hour 3
  0,                                      !- Minute 3
  0.5,                                    !- Value Until Time 3
  17,                                     !- Hour 4
  0,                                      !- Minute 4
  0.1,                                    !- Value Until Time 4
  24,                                     !- Hour 5
  0,                                      !- Minute 5
  0;                                      !- Value Until Time 5

OS:ScheduleTypeLimits,
  {2f751e8e-3d02-44c3-b659-54260252eaa9}, !- Handle
  Fractional,                             !- Name
  0,                                      !- Lower Limit Value {BasedOnField A4}
  1,                                      !- Upper Limit Value {BasedOnField A4}
  Continuous;                             !- Numeric Type

OS:Schedule:Ruleset,
  {f3d47bda-9dd5-464f-a69d-fa19a2b41b22}, !- Handle
  Medium Office People Activity Level Schedule, !- Name
  {e88b21c5-eefe-406b-bb62-cb0454a0a585}, !- Schedule Type Limits Name
  {834eed67-5518-4a55-9923-6842b2d86ecf}; !- Default Day Schedule Name

OS:Schedule:Day,
  {834eed67-5518-4a55-9923-6842b2d86ecf}, !- Handle
  Medium Office People Activity Level All Days Schedule, !- Name
  {e88b21c5-eefe-406b-bb62-cb0454a0a585}, !- Schedule Type Limits Name
  ,                                       !- Interpolate to Timestep
  24,                                     !- Hour 1
  0,                                      !- Minute 1
  120;                                    !- Value Until Time 1

OS:ScheduleTypeLimits,
  {e88b21c5-eefe-406b-bb62-cb0454a0a585}, !- Handle
  ActivityLevel,                          !- Name
  0,                                      !- Lower Limit Value {BasedOnField A4}
  ,                                       !- Upper Limit Value {BasedOnField A4}
  Continuous,                             !- Numeric Type
  ActivityLevel;                          !- Unit Type

OS:Schedule:Ruleset,
  {92f4dda2-c013-4dfc-97f9-6a5d1ce77a2e}, !- Handle
  Medium Office Lighting Schedule,        !- Name
  {2f751e8e-3d02-44c3-b659-54260252eaa9}, !- Schedule Type Limits Name
  {9f942cdd-0099-4922-92cc-75f63c1234d4}, !- Default Day Schedule Name
  {8eb0eb59-1f3b-4c47-809d-2ada91a96662}, !- Summer Design Day Schedule Name
  {7a7d5e9f-b498-4f41-86e3-0650b132a232}; !- Winter Design Day Schedule Name

OS:Schedule:Day,
  {9f942cdd-0099-4922-92cc-75f63c1234d4}, !- Handle
  Medium Office Lighting All Other Days Schedule, !- Name
  {2f751e8e-3d02-44c3-b659-54260252eaa9}, !- Schedule Type Limits Name
  ,                                       !- Interpolate to Timestep
  24,                                     !- Hour 1
  0,                                      !- Minute 1
  0.05;                                   !- Value Until Time 1

OS:Schedule:Day,
  {3abcee2b-caed-47d8-866c-fe965c257cf3}, !- Handle
  Medium Office Lighting Summer Design Day Schedule, !- Name
  ,                                       !- Schedule Type Limits Name
  ,                                       !- Interpolate to Timestep
  6,                                      !- Hour 1
  0,                                      !- Minute 1
  1,                                      !- Value Until Time 1
  24,                                     !- Hour 2
  0,                                      !- Minute 2
  0;                                      !- Value Until Time 2

OS:Schedule:Day,
  {8eb0eb59-1f3b-4c47-809d-2ada91a96662}, !- Handle
  Medium Office Lighting Summer Design Day Schedule 1, !- Name
  {2f751e8e-3d02-44c3-b659-54260252eaa9}, !- Schedule Type Limits Name
  ,                                       !- Interpolate to Timestep
  6,                                      !- Hour 1
  0,                                      !- Minute 1
  1,                                      !- Value Until Time 1
  24,                                     !- Hour 2
  0,                                      !- Minute 2
  0;                                      !- Value Until Time 2

OS:Schedule:Day,
  {17218a7d-d0ee-4ce4-80f2-58f8dfe4a9d3}, !- Handle
  Medium Office Lighting Winter Design Day Schedule, !- Name
  ,                                       !- Schedule Type Limits Name
  ,                                       !- Interpolate to Timestep
  24,                                     !- Hour 1
  0,                                      !- Minute 1
  0;                                      !- Value Until Time 1

OS:Schedule:Day,
  {7a7d5e9f-b498-4f41-86e3-0650b132a232}, !- Handle
  Medium Office Lighting Winter Design Day Schedule 1, !- Name
  {2f751e8e-3d02-44c3-b659-54260252eaa9}, !- Schedule Type Limits Name
  ,                                       !- Interpolate to Timestep
  24,                                     !- Hour 1
  0,                                      !- Minute 1
  0;                                      !- Value Until Time 1

OS:Schedule:Rule,
  {cae8f1af-9092-4727-9482-2eb0a7252536}, !- Handle
  Medium Office Lighting Schedule Weekdays Rule, !- Name
  {92f4dda2-c013-4dfc-97f9-6a5d1ce77a2e}, !- Schedule Ruleset Name
  1,                                      !- Rule Order
  {4688ad4c-23e7-448a-9263-a834ea2b356a}, !- Day Schedule Name
  ,                                       !- Apply Sunday
  Yes,                                    !- Apply Monday
  Yes,                                    !- Apply Tuesday
  Yes,                                    !- Apply Wednesday
  Yes,                                    !- Apply Thursday
  Yes;                                    !- Apply Friday

OS:Schedule:Day,
  {4688ad4c-23e7-448a-9263-a834ea2b356a}, !- Handle
  Medium Office Lighting Weekdays Schedule, !- Name
  {2f751e8e-3d02-44c3-b659-54260252eaa9}, !- Schedule Type Limits Name
  ,                                       !- Interpolate to Timestep
  5,                                      !- Hour 1
  0,                                      !- Minute 1
  0.05,                                   !- Value Until Time 1
  7,                                      !- Hour 2
  0,                                      !- Minute 2
  0.1,                                    !- Value Until Time 2
  8,                                      !- Hour 3
  0,                                      !- Minute 3
  0.3,                                    !- Value Until Time 3
  17,                                     !- Hour 4
  0,                                      !- Minute 4
  0.9,                                    !- Value Until Time 4
  18,                                     !- Hour 5
  0,                                      !- Minute 5
  0.7,                                    !- Value Until Time 5
  20,                                     !- Hour 6
  0,                                      !- Minute 6
  0.5,                                    !- Value Until Time 6
  22,                                     !- Hour 7
  0,                                      !- Minute 7
  0.3,                                    !- Value Until Time 7
  23,                                     !- Hour 8
  0,                                      !- Minute 8
  0.1,                                    !- Value Until Time 8
  24,                                     !- Hour 9
  0,                                      !- Minute 9
  0.05;                                   !- Value Until Time 9

OS:Schedule:Rule,
  {dd8633cb-533e-4e84-b574-1f81b44dc856}, !- Handle
  Medium Office Lighting Schedule Saturday Rule, !- Name
  {92f4dda2-c013-4dfc-97f9-6a5d1ce77a2e}, !- Schedule Ruleset Name
  0,                                      !- Rule Order
  {e02ace6c-5b10-4de3-b7e8-6072db63574b}, !- Day Schedule Name
  ,                                       !- Apply Sunday
  ,                                       !- Apply Monday
  ,                                       !- Apply Tuesday
  ,                                       !- Apply Wednesday
  ,                                       !- Apply Thursday
  ,                                       !- Apply Friday
  Yes;                                    !- Apply Saturday

OS:Schedule:Day,
  {e02ace6c-5b10-4de3-b7e8-6072db63574b}, !- Handle
  Medium Office Lighting Saturday Schedule, !- Name
  {2f751e8e-3d02-44c3-b659-54260252eaa9}, !- Schedule Type Limits Name
  ,                                       !- Interpolate to Timestep
  6,                                      !- Hour 1
  0,                                      !- Minute 1
  0.05,                                   !- Value Until Time 1
  8,                                      !- Hour 2
  0,                                      !- Minute 2
  0.1,                                    !- Value Until Time 2
  14,                                     !- Hour 3
  0,                                      !- Minute 3
  0.5,                                    !- Value Until Time 3
  17,                                     !- Hour 4
  0,                                      !- Minute 4
  0.15,                                   !- Value Until Time 4
  24,                                     !- Hour 5
  0,                                      !- Minute 5
  0.05;                                   !- Value Until Time 5

OS:Schedule:Ruleset,
  {26c269db-9969-436b-a5fd-0c28ccbc3a9a}, !- Handle
  Medium Office Electric Equipment Schedule, !- Name
  {2f751e8e-3d02-44c3-b659-54260252eaa9}, !- Schedule Type Limits Name
  {e7d7bc85-55ba-4c29-acd2-9f69584ef599}, !- Default Day Schedule Name
  {18c2ae1c-bd73-4d6f-9543-14e4e7cd3103}, !- Summer Design Day Schedule Name
  {6ec25dfc-3e5f-45d1-b06d-235cb15ce331}; !- Winter Design Day Schedule Name

OS:Schedule:Day,
  {e7d7bc85-55ba-4c29-acd2-9f69584ef599}, !- Handle
  Medium Office Electric Equipment All Other Days Schedule, !- Name
  {2f751e8e-3d02-44c3-b659-54260252eaa9}, !- Schedule Type Limits Name
  ,                                       !- Interpolate to Timestep
  24,                                     !- Hour 1
  0,                                      !- Minute 1
  0.3;                                    !- Value Until Time 1

OS:Schedule:Day,
  {1ce148ae-a521-4206-8c8a-88c90e56fd5e}, !- Handle
  Medium Office Electric Equipment Summer Design Day Schedule, !- Name
  ,                                       !- Schedule Type Limits Name
  ,                                       !- Interpolate to Timestep
  6,                                      !- Hour 1
  0,                                      !- Minute 1
  1,                                      !- Value Until Time 1
  24,                                     !- Hour 2
  0,                                      !- Minute 2
  0;                                      !- Value Until Time 2

OS:Schedule:Day,
  {18c2ae1c-bd73-4d6f-9543-14e4e7cd3103}, !- Handle
  Medium Office Electric Equipment Summer Design Day Schedule 1, !- Name
  {2f751e8e-3d02-44c3-b659-54260252eaa9}, !- Schedule Type Limits Name
  ,                                       !- Interpolate to Timestep
  6,                                      !- Hour 1
  0,                                      !- Minute 1
  1,                                      !- Value Until Time 1
  24,                                     !- Hour 2
  0,                                      !- Minute 2
  0;                                      !- Value Until Time 2

OS:Schedule:Day,
  {9d3f445b-6885-4b81-bba9-eedced49433f}, !- Handle
  Medium Office Electric Equipment Winter Design Day Schedule, !- Name
  ,                                       !- Schedule Type Limits Name
  ,                                       !- Interpolate to Timestep
  24,                                     !- Hour 1
  0,                                      !- Minute 1
  0;                                      !- Value Until Time 1

OS:Schedule:Day,
  {6ec25dfc-3e5f-45d1-b06d-235cb15ce331}, !- Handle
  Medium Office Electric Equipment Winter Design Day Schedule 1, !- Name
  {2f751e8e-3d02-44c3-b659-54260252eaa9}, !- Schedule Type Limits Name
  ,                                       !- Interpolate to Timestep
  24,                                     !- Hour 1
  0,                                      !- Minute 1
  0;                                      !- Value Until Time 1

OS:Schedule:Rule,
  {9e10ba7d-f5b7-4847-a995-c3a8569c5762}, !- Handle
  Medium Office Electric Equipment Schedule Weekdays Rule, !- Name
  {26c269db-9969-436b-a5fd-0c28ccbc3a9a}, !- Schedule Ruleset Name
  1,                                      !- Rule Order
  {13d690df-735f-402e-a6c8-79b391492fb4}, !- Day Schedule Name
  ,                                       !- Apply Sunday
  Yes,                                    !- Apply Monday
  Yes,                                    !- Apply Tuesday
  Yes,                                    !- Apply Wednesday
  Yes,                                    !- Apply Thursday
  Yes;                                    !- Apply Friday

OS:Schedule:Day,
  {13d690df-735f-402e-a6c8-79b391492fb4}, !- Handle
  Medium Office Electric Equipment Weekdays Schedule, !- Name
  {2f751e8e-3d02-44c3-b659-54260252eaa9}, !- Schedule Type Limits Name
  ,                                       !- Interpolate to Timestep
  8,                                      !- Hour 1
  0,                                      !- Minute 1
  0.4,                                    !- Value Until Time 1
  12,                                     !- Hour 2
  0,                                      !- Minute 2
  0.9,                                    !- Value Until Time 2
  13,                                     !- Hour 3
  0,                                      !- Minute 3
  0.8,                                    !- Value Until Time 3
  17,                                     !- Hour 4
  0,                                      !- Minute 4
  0.9,                                    !- Value Until Time 4
  18,                                     !- Hour 5
  0,                                      !- Minute 5
  0.8,                                    !- Value Until Time 5
  20,                                     !- Hour 6
  0,                                      !- Minute 6
  0.6,                                    !- Value Until Time 6
  22,                                     !- Hour 7
  0,                                      !- Minute 7
  0.5,                                    !- Value Until Time 7
  24,                                     !- Hour 8
  0,                                      !- Minute 8
  0.4;                                    !- Value Until Time 8

OS:Schedule:Rule,
  {4372dea7-0184-4f32-aaeb-112b85f0951b}, !- Handle
  Medium Office Electric Equipment Schedule Saturday Rule, !- Name
  {26c269db-9969-436b-a5fd-0c28ccbc3a9a}, !- Schedule Ruleset Name
  0,                                      !- Rule Order
  {d2b5f6ff-2260-419e-86a5-5135d229fe43}, !- Day Schedule Name
  ,                                       !- Apply Sunday
  ,                                       !- Apply Monday
  ,                                       !- Apply Tuesday
  ,                                       !- Apply Wednesday