
OS:Version,
  {3db81e83-0a29-4bde-adea-5338ee923cef}, ! Handle
  0.9.2;                                  ! Version Identifier

OS:SimulationControl,
  {fdd45f3e-3472-4cf3-87c8-2dc5e2cfadda}, ! Handle
  Yes,                                    ! Do Zone Sizing Calculation
  Yes,                                    ! Do System Sizing Calculation
  ,                                       ! Do Plant Sizing Calculation
  No,                                     ! Run Simulation for Sizing Periods
  Yes;                                    ! Run Simulation for Weather File Run Periods

OS:Timestep,
  {1a4788e0-18e3-4670-9a59-9d13480a5e39}, ! Handle
  6;                                      ! Number of Timesteps per Hour

OS:RunPeriod,
  {85b85401-dd89-4055-81ce-3f3bdbf0bf7d}, ! Handle
  Run Period 1,                           ! Name
  1,                                      ! Begin Month
  1,                                      ! Begin Day of Month
  12,                                     ! End Month
  31,                                     ! End Day of Month
  No,                                     ! Use Weather File Holidays and Special Days
  No,                                     ! Use Weather File Daylight Saving Period
  No,                                     ! Apply Weekend Holiday Rule
  Yes,                                    ! Use Weather File Rain Indicators
  Yes,                                    ! Use Weather File Snow Indicators
  1;                                      ! Number of Times Runperiod to be Repeated

OS:SurfaceConvectionAlgorithm:Inside,
  {e7a6694f-4f96-4662-90cd-48e6ae1fbe46}, ! Handle
  TARP;                                   ! Algorithm

OS:SurfaceConvectionAlgorithm:Outside,
  {1a1a161f-dfe9-4f98-a312-a9c6a2c2ef49}, ! Handle
  DOE-2;                                  ! Algorithm

OS:HeatBalanceAlgorithm,
  {b2bbdbed-aee2-407d-b222-5e24baaaff20}, ! Handle
  ConductionTransferFunction,             ! Algorithm
  200;                                    ! Surface Temperature Upper Limit {F}

OS:ZoneAirHeatBalanceAlgorithm,
  {abc15478-e2d7-4fc0-ac37-998d1cdb27cd}, ! Handle
  AnalyticalSolution;                     ! Algorithm

OS:ConvergenceLimits,
  {88801bfa-0667-4313-8947-dcad0c7c4060}; ! Handle

OS:ShadowCalculation,
  {1a4858d5-bc6a-437f-a1dc-3485da98776f}, ! Handle
  7,                                      ! Calculation Frequency
  15000;                                  ! Maximum Figures in Shadow Overlap Calculations

OS:Site,
  {d11f7b0d-ae8b-462f-8f06-9bc1dadff669}, ! Handle
  Site 1,                                 ! Name
  41.77,                                  ! Latitude {deg}
  -87.75,                                 ! Longitude {deg}
  -6,                                     ! Time Zone {hr}
  190,                                    ! Elevation {m}
  ;                                       ! Terrain

OS:Site:GroundTemperature:BuildingSurface,
  {54cd8372-189b-453a-9d2d-bf9f350f45f5}, ! Handle
  19.527,                                 ! January Ground Temperature {C}
  19.502,                                 ! February Ground Temperature {C}
  19.536,                                 ! March Ground Temperature {C}
  19.598,                                 ! April Ground Temperature {C}
  20.002,                                 ! May Ground Temperature {C}
  21.64,                                  ! June Ground Temperature {C}
  22.225,                                 ! July Ground Temperature {C}
  22.375,                                 ! August Ground Temperature {C}
  21.449,                                 ! September Ground Temperature {C}
  20.121,                                 ! October Ground Temperature {C}
  19.802,                                 ! November Ground Temperature {C}
  19.633;                                 ! December Ground Temperature {C}

OS:Site:WaterMainsTemperature,
  {831bf042-114e-4d88-beff-255037271e4a}, ! Handle
  Correlation,                            ! Calculation Method
  ,                                       ! Temperature Schedule Name
  9.69,                                   ! Annual Average Outdoor Air Temperature {C}
  28.1;                                   ! Maximum Difference In Monthly Average Outdoor Air Temperatures {deltaC}

OS:SizingPeriod:DesignDay,
  {b0c97b9e-f667-4a5a-8960-7a1e20339b1e}, ! Handle
  Sizing Period Design Day 1,             ! Name
  -20.6,                                  ! Maximum Dry-Bulb Temperature {C}
  0,                                      ! Daily Dry-Bulb Temperature Range {deltaC}
  -20.6,                                  ! Humidity Indicating Conditions at Maximum Dry-Bulb {BasedOnField A3}
  99063,                                  ! Barometric Pressure {Pa}
  4.9,                                    ! Wind Speed {m/s}
  270,                                    ! Wind Direction {deg}
  0,                                      ! Sky Clearness
  0,                                      ! Rain Indicator
  0,                                      ! Snow Indicator
  21,                                     ! Day of Month
  1,                                      ! Month
  WinterDesignDay,                        ! Day Type
  0,                                      ! Daylight Saving Time Indicator
  WetBulb,                                ! Humidity Indicating Type
  ,                                       ! Humidity Indicating Day Schedule Name
  DefaultMultipliers,                     ! Dry-Bulb Temperature Range Modifier Type
  ,                                       ! Dry-Bulb Temperature Range Modifier Schedule Name
  AshraeClearSky;                         ! Solar Model Indicator

OS:SizingPeriod:DesignDay,
  {c19ec927-9942-42a0-84a5-2d4909862cf8}, ! Handle
  Sizing Period Design Day 2,             ! Name
  33.2,                                   ! Maximum Dry-Bulb Temperature {C}
  10.7,                                   ! Daily Dry-Bulb Temperature Range {deltaC}
  23.8,                                   ! Humidity Indicating Conditions at Maximum Dry-Bulb {BasedOnField A3}
  99063,                                  ! Barometric Pressure {Pa}
  5.3,                                    ! Wind Speed {m/s}
  230,                                    ! Wind Direction {deg}
  1,                                      ! Sky Clearness
  0,                                      ! Rain Indicator
  0,                                      ! Snow Indicator
  21,                                     ! Day of Month
  7,                                      ! Month
  SummerDesignDay,                        ! Day Type
  0,                                      ! Daylight Saving Time Indicator
  WetBulb,                                ! Humidity Indicating Type
  ,                                       ! Humidity Indicating Day Schedule Name
  DefaultMultipliers,                     ! Dry-Bulb Temperature Range Modifier Type
  ,                                       ! Dry-Bulb Temperature Range Modifier Schedule Name
  AshraeClearSky;                         ! Solar Model Indicator

OS:ScheduleTypeLimits,
  {0b7ed372-7378-48b5-81d3-3d134a7edf75}, ! Handle
  Temperature,                            ! Name
  -60,                                    ! Lower Limit Value {BasedOnField A4}
  200,                                    ! Upper Limit Value {BasedOnField A4}
  CONTINUOUS,                             ! Numeric Type
  Temperature;                            ! Unit Type

OS:DefaultScheduleSet,
  {530b1596-9757-4a12-94bf-7c2339020b4c}, ! Handle
  Default Schedules,                      ! Name
  ,                                       ! Hours of Operation Schedule Name
  {a519be8b-e549-4df9-8f22-b6bb9a46887d}, ! Number of People Schedule Name
  {437e816c-c204-4c1b-ae72-e7ffba174d13}, ! People Activity Level Schedule Name
  {8085bd2b-9c95-446f-b327-47b2283a977b}, ! Lighting Schedule Name
  {4b3099e3-217e-40a4-bd96-41d7b12d50d2}, ! Electric Equipment Schedule Name
  {615801f8-a8f8-46cf-8505-d614b69efbf0}, ! Gas Equipment Schedule Name
  {3bca57ac-cc49-46b0-a129-a9c786c639ca}, ! Hot Water Equipment Schedule Name
  {11a0c460-328f-4a09-a2da-099156178131}, ! Infiltration Schedule Name
  ,                                       ! Steam Equipment Schedule Name
  ;                                       ! Other Equipment Schedule Name

OS:Schedule:Ruleset,
  {a519be8b-e549-4df9-8f22-b6bb9a46887d}, ! Handle
  Medium Office Number of People Schedule, ! Name
  {0b2f5bbb-22cb-4fe8-807e-bf15c7767389}, ! Schedule Type Limits Name
  {97d3bfd3-e0c9-4cbc-bd92-e2ca897aa87a}, ! Default Day Schedule Name
  {f4e526c2-a9e9-4ecb-a736-679ef66e1716}; ! Summer Design Day Schedule Name

OS:Schedule:Day,
  {97d3bfd3-e0c9-4cbc-bd92-e2ca897aa87a}, ! Handle
  Medium Office Number of People All Other Days Schedule, ! Name
  {0b2f5bbb-22cb-4fe8-807e-bf15c7767389}, ! Schedule Type Limits Name
  ,                                       ! Interpolate to Timestep
  24,                                     ! Hour 1
  0,                                      ! Minute 1
  0;                                      ! Value Until Time 1

OS:Schedule:Day,
  {ed10690b-e591-4534-b082-9e2683c6f4c1}, ! Handle
  Medium Office Number of People Summer Design Day Schedule, ! Name
  ,                                       ! Schedule Type Limits Name
  ,                                       ! Interpolate to Timestep
  6,                                      ! Hour 1
  0,                                      ! Minute 1
  0,                                      ! Value Until Time 1
  22,                                     ! Hour 2
  0,                                      ! Minute 2
  1,                                      ! Value Until Time 2
  24,                                     ! Hour 3
  0,                                      ! Minute 3
  0.05;                                   ! Value Until Time 3

OS:Schedule:Day,
  {f4e526c2-a9e9-4ecb-a736-679ef66e1716}, ! Handle
  Medium Office Number of People Summer Design Day Schedule 1, ! Name
  {0b2f5bbb-22cb-4fe8-807e-bf15c7767389}, ! Schedule Type Limits Name
  ,                                       ! Interpolate to Timestep
  6,                                      ! Hour 1
  0,                                      ! Minute 1
  0,                                      ! Value Until Time 1
  22,                                     ! Hour 2
  0,                                      ! Minute 2
  1,                                      ! Value Until Time 2
  24,                                     ! Hour 3
  0,                                      ! Minute 3
  0.05;                                   ! Value Until Time 3

OS:Schedule:Rule,
  {e5938034-ef9c-4d03-9af7-f7cb83c70155}, ! Handle
  Medium Office Number of People Schedule Weekdays Rule, ! Name
  {a519be8b-e549-4df9-8f22-b6bb9a46887d}, ! Schedule Ruleset Name
  1,                                      ! Rule Order
  {7b8a480e-1ed9-4b66-bdbe-280356ac8585}, ! Day Schedule Name
  ,                                       ! Apply Sunday
  Yes,                                    ! Apply Monday
  Yes,                                    ! Apply Tuesday
  Yes,                                    ! Apply Wednesday
  Yes,                                    ! Apply Thursday
  Yes;                                    ! Apply Friday

OS:Schedule:Day,
  {7b8a480e-1ed9-4b66-bdbe-280356ac8585}, ! Handle
  Medium Office Number of People Weekdays Schedule, ! Name
  {0b2f5bbb-22cb-4fe8-807e-bf15c7767389}, ! Schedule Type Limits Name
  ,                                       ! Interpolate to Timestep
  6,                                      ! Hour 1
  0,                                      ! Minute 1
  0,                                      ! Value Until Time 1
  7,                                      ! Hour 2
  0,                                      ! Minute 2
  0.1,                                    ! Value Until Time 2
  8,                                      ! Hour 3
  0,                                      ! Minute 3
  0.2,                                    ! Value Until Time 3
  12,                                     ! Hour 4
  0,                                      ! Minute 4
  0.95,                                   ! Value Until Time 4
  13,                                     ! Hour 5
  0,                                      ! Minute 5
  0.5,                                    ! Value Until Time 5
  17,                                     ! Hour 6
  0,                                      ! Minute 6
  0.95,                                   ! Value Until Time 6
  18,                                     ! Hour 7
  0,                                      ! Minute 7
  0.7,                                    ! Value Until Time 7
  20,                                     ! Hour 8
  0,                                      ! Minute 8
  0.4,                                    ! Value Until Time 8
  22,                                     ! Hour 9
  0,                                      ! Minute 9
  0.1,                                    ! Value Until Time 9
  24,                                     ! Hour 10
  0,                                      ! Minute 10
  0.05;                                   ! Value Until Time 10

OS:Schedule:Rule,
  {fa07720a-2d0b-4af5-9f60-16a5f02903a4}, ! Handle
  Medium Office Number of People Schedule Saturday Rule, ! Name
  {a519be8b-e549-4df9-8f22-b6bb9a46887d}, ! Schedule Ruleset Name
  0,                                      ! Rule Order
  {f2d7fe66-3a69-469b-8703-17ae7621a4b6}, ! Day Schedule Name
  ,                                       ! Apply Sunday
  ,                                       ! Apply Monday
  ,                                       ! Apply Tuesday
  ,                                       ! Apply Wednesday
  ,                                       ! Apply Thursday
  ,                                       ! Apply Friday
  Yes;                                    ! Apply Saturday

OS:Schedule:Day,
  {f2d7fe66-3a69-469b-8703-17ae7621a4b6}, ! Handle
  Medium Office Number of People Saturday Schedule, ! Name
  {0b2f5bbb-22cb-4fe8-807e-bf15c7767389}, ! Schedule Type Limits Name
  ,                                       ! Interpolate to Timestep
  6,                                      ! Hour 1
  0,                                      ! Minute 1
  0,                                      ! Value Until Time 1
  8,                                      ! Hour 2
  0,                                      ! Minute 2
  0.1,                                    ! Value Until Time 2
  14,                                     ! Hour 3
  0,                                      ! Minute 3
  0.5,                                    ! Value Until Time 3
  17,                                     ! Hour 4
  0,                                      ! Minute 4
  0.1,                                    ! Value Until Time 4
  24,                                     ! Hour 5
  0,                                      ! Minute 5
  0;                                      ! Value Until Time 5

OS:ScheduleTypeLimits,
  {0b2f5bbb-22cb-4fe8-807e-bf15c7767389}, ! Handle
  Fractional,                             ! Name
  0,                                      ! Lower Limit Value {BasedOnField A4}
  1,                                      ! Upper Limit Value {BasedOnField A4}
  Continuous;                             ! Numeric Type

OS:Schedule:Ruleset,
  {437e816c-c204-4c1b-ae72-e7ffba174d13}, ! Handle
  Medium Office People Activity Level Schedule, ! Name
  {86609db6-06b2-4eb1-8f2d-e39edd49208c}, ! Schedule Type Limits Name
  {946ef941-1758-4fe4-b610-646ef5a2e922}; ! Default Day Schedule Name

OS:Schedule:Day,
  {946ef941-1758-4fe4-b610-646ef5a2e922}, ! Handle
  Medium Office People Activity Level All Days Schedule, ! Name
  {86609db6-06b2-4eb1-8f2d-e39edd49208c}, ! Schedule Type Limits Name
  ,                                       ! Interpolate to Timestep
  24,                                     ! Hour 1
  0,                                      ! Minute 1
  120;                                    ! Value Until Time 1

OS:ScheduleTypeLimits,
  {86609db6-06b2-4eb1-8f2d-e39edd49208c}, ! Handle
  ActivityLevel,                          ! Name
  0,                                      ! Lower Limit Value {BasedOnField A4}
  ,                                       ! Upper Limit Value {BasedOnField A4}
  Continuous,                             ! Numeric Type
  ActivityLevel;                          ! Unit Type

OS:Schedule:Ruleset,
  {8085bd2b-9c95-446f-b327-47b2283a977b}, ! Handle
  Medium Office Lighting Schedule,        ! Name
  {0b2f5bbb-22cb-4fe8-807e-bf15c7767389}, ! Schedule Type Limits Name
  {2c86fc48-77ca-488e-8366-4e8dc5477f78}, ! Default Day Schedule Name
  {83950554-50c9-431f-b926-b013b266e96c}, ! Summer Design Day Schedule Name
  {69893630-6a73-47ea-bca9-9570de47fee4}; ! Winter Design Day Schedule Name

OS:Schedule:Day,
  {2c86fc48-77ca-488e-8366-4e8dc5477f78}, ! Handle
  Medium Office Lighting All Other Days Schedule, ! Name
  {0b2f5bbb-22cb-4fe8-807e-bf15c7767389}, ! Schedule Type Limits Name
  ,                                       ! Interpolate to Timestep
  24,                                     ! Hour 1
  0,                                      ! Minute 1
  0.05;                                   ! Value Until Time 1

OS:Schedule:Day,
  {82c3ec1c-e5fe-46bf-b52a-c33ec373bb62}, ! Handle
  Medium Office Lighting Summer Design Day Schedule, ! Name
  ,                                       ! Schedule Type Limits Name
  ,                                       ! Interpolate to Timestep
  6,                                      ! Hour 1
  0,                                      ! Minute 1
  1,                                      ! Value Until Time 1
  24,                                     ! Hour 2
  0,                                      ! Minute 2
  0;                                      ! Value Until Time 2

OS:Schedule:Day,
  {83950554-50c9-431f-b926-b013b266e96c}, ! Handle
  Medium Office Lighting Summer Design Day Schedule 1, ! Name
  {0b2f5bbb-22cb-4fe8-807e-bf15c7767389}, ! Schedule Type Limits Name
  ,                                       ! Interpolate to Timestep
  6,                                      ! Hour 1
  0,                                      ! Minute 1
  1,                                      ! Value Until Time 1
  24,                                     ! Hour 2
  0,                                      ! Minute 2
  0;                                      ! Value Until Time 2

OS:Schedule:Day,
  {18c29530-b024-49d7-80b3-0a7bc487e899}, ! Handle
  Medium Office Lighting Winter Design Day Schedule, ! Name
  ,                                       ! Schedule Type Limits Name
  ,                                       ! Interpolate to Timestep
  24,                                     ! Hour 1
  0,                                      ! Minute 1
  0;                                      ! Value Until Time 1

OS:Schedule:Day,
  {69893630-6a73-47ea-bca9-9570de47fee4}, ! Handle
  Medium Office Lighting Winter Design Day Schedule 1, ! Name
  {0b2f5bbb-22cb-4fe8-807e-bf15c7767389}, ! Schedule Type Limits Name
  ,                                       ! Interpolate to Timestep
  24,                                     ! Hour 1
  0,                                      ! Minute 1
  0;                                      ! Value Until Time 1

OS:Schedule:Rule,
  {60a2050e-4912-4ee3-b36b-e0d1e656fbc7}, ! Handle
  Medium Office Lighting Schedule Weekdays Rule, ! Name
  {8085bd2b-9c95-446f-b327-47b2283a977b}, ! Schedule Ruleset Name
  1,                                      ! Rule Order
  {4492726c-960e-4b5e-a285-f6814e741eec}, ! Day Schedule Name
  ,                                       ! Apply Sunday
  Yes,                                    ! Apply Monday
  Yes,                                    ! Apply Tuesday
  Yes,                                    ! Apply Wednesday
  Yes,                                    ! Apply Thursday
  Yes;                                    ! Apply Friday

OS:Schedule:Day,
  {4492726c-960e-4b5e-a285-f6814e741eec}, ! Handle
  Medium Office Lighting Weekdays Schedule, ! Name
  {0b2f5bbb-22cb-4fe8-807e-bf15c7767389}, ! Schedule Type Limits Name
  ,                                       ! Interpolate to Timestep
  5,                                      ! Hour 1
  0,                                      ! Minute 1
  0.05,                                   ! Value Until Time 1
  7,                                      ! Hour 2
  0,                                      ! Minute 2
  0.1,                                    ! Value Until Time 2
  8,                                      ! Hour 3
  0,                                      ! Minute 3
  0.3,                                    ! Value Until Time 3
  17,                                     ! Hour 4
  0,                                      ! Minute 4
  0.9,                                    ! Value Until Time 4
  18,                                     ! Hour 5
  0,                                      ! Minute 5
  0.7,                                    ! Value Until Time 5
  20,                                     ! Hour 6
  0,                                      ! Minute 6
  0.5,                                    ! Value Until Time 6
  22,                                     ! Hour 7
  0,                                      ! Minute 7
  0.3,                                    ! Value Until Time 7
  23,                                     ! Hour 8
  0,                                      ! Minute 8
  0.1,                                    ! Value Until Time 8
  24,                                     ! Hour 9
  0,                                      ! Minute 9
  0.05;                                   ! Value Until Time 9

OS:Schedule:Rule,
  {53ab5d8a-b284-4642-99ed-628b8eeab088}, ! Handle
  Medium Office Lighting Schedule Saturday Rule, ! Name
  {8085bd2b-9c95-446f-b327-47b2283a977b}, ! Schedule Ruleset Name
  0,                                      ! Rule Order
  {b62d25a0-a7c2-4ebb-8e7b-ece75bb236c6}, ! Day Schedule Name
  ,                                       ! Apply Sunday
  ,                                       ! Apply Monday
  ,                                       ! Apply Tuesday
  ,                                       ! Apply Wednesday
  ,                                       ! Apply Thursday
  ,                                       ! Apply Friday
  Yes;                                    ! Apply Saturday

OS:Schedule:Day,
  {b62d25a0-a7c2-4ebb-8e7b-ece75bb236c6}, ! Handle
  Medium Office Lighting Saturday Schedule, ! Name
  {0b2f5bbb-22cb-4fe8-807e-bf15c7767389}, ! Schedule Type Limits Name
  ,                                       ! Interpolate to Timestep
  6,                                      ! Hour 1
  0,                                      ! Minute 1
  0.05,                                   ! Value Until Time 1
  8,                                      ! Hour 2
  0,                                      ! Minute 2
  0.1,                                    ! Value Until Time 2
  14,                                     ! Hour 3
  0,                                      ! Minute 3
  0.5,                                    ! Value Until Time 3
  17,                                     ! Hour 4
  0,                                      ! Minute 4
  0.15,                                   ! Value Until Time 4
  24,                                     ! Hour 5
  0,                                      ! Minute 5
  0.05;                                   ! Value Until Time 5

OS:Schedule:Ruleset,
  {4b3099e3-217e-40a4-bd96-41d7b12d50d2}, ! Handle
  Medium Office Electric Equipment Schedule, ! Name
  {0b2f5bbb-22cb-4fe8-807e-bf15c7767389}, ! Schedule Type Limits Name
  {383532ad-d32d-451a-8408-babb718bb235}, ! Default Day Schedule Name
  {7a0ccb43-0b51-45d4-8a0c-bb6c5656b2f8}, ! Summer Design Day Schedule Name
  {a8fff7b5-d861-42d7-bdea-72566374b1d8}; ! Winter Design Day Schedule Name

OS:Schedule:Day,
  {383532ad-d32d-451a-8408-babb718bb235}, ! Handle
  Medium Office Electric Equipment All Other Days Schedule, ! Name
  {0b2f5bbb-22cb-4fe8-807e-bf15c7767389}, ! Schedule Type Limits Name
  ,                                       ! Interpolate to Timestep
  24,                                     ! Hour 1
  0,                                      ! Minute 1
  0.3;                                    ! Value Until Time 1

OS:Schedule:Day,
  {28d2d3e5-e9cd-495f-abd4-240d93d5e31e}, ! Handle
  Medium Office Electric Equipment Summer Design Day Schedule, ! Name
  ,                                       ! Schedule Type Limits Name
  ,                                       ! Interpolate to Timestep
  6,                                      ! Hour 1
  0,                                      ! Minute 1
  1,                                      ! Value Until Time 1
  24,                                     ! Hour 2
  0,                                      ! Minute 2
  0;                                      ! Value Until Time 2

OS:Schedule:Day,
  {7a0ccb43-0b51-45d4-8a0c-bb6c5656b2f8}, ! Handle
  Medium Office Electric Equipment Summer Design Day Schedule 1, ! Name
  {0b2f5bbb-22cb-4fe8-807e-bf15c7767389}, ! Schedule Type Limits Name
  ,                                       ! Interpolate to Timestep
  6,                                      ! Hour 1
  0,                                      ! Minute 1
  1,                                      ! Value Until Time 1
  24,                                     ! Hour 2
  0,                                      ! Minute 2
  0;                                      ! Value Until Time 2

OS:Schedule:Day,
  {a5405a05-c86f-40f8-886d-7b8b4e9b39df}, ! Handle
  Medium Office Electric Equipment Winter Design Day Schedule, ! Name
  ,                                       ! Schedule Type Limits Name
  ,                                       ! Interpolate to Timestep
  24,                                     ! Hour 1
  0,                                      ! Minute 1
  0;                                      ! Value Until Time 1

OS:Schedule:Day,
  {a8fff7b5-d861-42d7-bdea-72566374b1d8}, ! Handle
  Medium Office Electric Equipment Winter Design Day Schedule 1, ! Name
  {0b2f5bbb-22cb-4fe8-807e-bf15c7767389}, ! Schedule Type Limits Name
  ,                                       ! Interpolate to Timestep
  24,                                     ! Hour 1
  0,                                      ! Minute 1
  0;                                      ! Value Until Time 1

OS:Schedule:Rule,
  {266f7064-437a-4213-bfb6-6146607d9efb}, ! Handle
  Medium Office Electric Equipment Schedule Weekdays Rule, ! Name
  {4b3099e3-217e-40a4-bd96-41d7b12d50d2}, ! Schedule Ruleset Name
  1,                                      ! Rule Order
  {93511407-2415-4939-958e-92ab04e33219}, ! Day Schedule Name
  ,                                       ! Apply Sunday
  Yes,                                    ! Apply Monday
  Yes,                                    ! Apply Tuesday
  Yes,                                    ! Apply Wednesday
  Yes,                                    ! Apply Thursday
  Yes;                                    ! Apply Friday

OS:Schedule:Day,
  {93511407-2415-4939-958e-92ab04e33219}, ! Handle
  Medium Office Electric Equipment Weekdays Schedule, ! Name
  {0b2f5bbb-22cb-4fe8-807e-bf15c7767389}, ! Schedule Type Limits Name
  ,                                       ! Interpolate to Timestep
  8,                                      ! Hour 1
  0,                                      ! Minute 1
  0.4,                                    ! Value Until Time 1
  12,                                     ! Hour 2
  0,                                      ! Minute 2
  0.9,                                    ! Value Until Time 2
  13,                                     ! Hour 3
  0,                                      ! Minute 3
  0.8,                                    ! Value Until Time 3
  17,                                     ! Hour 4
  0,                                      ! Minute 4
  0.9,                                    ! Value Until Time 4
  18,                                     ! Hour 5
  0,                                      ! Minute 5
  0.8,                                    ! Value Until Time 5
  20,                                     ! Hour 6
  0,                                      ! Minute 6
  0.6,                                    ! Value Until Time 6
  22,                                     ! Hour 7
  0,                                      ! Minute 7
  0.5,                                    ! Value Until Time 7
  24,                                     ! Hour 8
  0,                                      ! Minute 8
  0.4;                                    ! Value Until Time 8

OS:Schedule:Rule,
  {d9f72bd6-8db7-4014-b6c7-3525b9504f2f}, ! Handle
  Medium Office Electric Equipment Schedule Saturday Rule, ! Name
  {4b3099e3-217e-40a4-bd96-41d7b12d50d2}, ! Schedule Ruleset Name
  0,                                      ! Rule Order
  {0e0bed00-e171-4c07-8d7a-815d518e9385}, ! Day Schedule Name
  ,                                       ! Apply Sunday
  ,                                       ! Apply Monday
  ,                                       ! Apply Tuesday
  ,                                       ! Apply Wednesday
  ,                                       ! Apply Thursday
  ,                                       ! Apply Friday
  Yes;                                    ! Apply Saturday

OS:Schedule:Day,
  {0e0bed00-e171-4c07-8d7a-815d518e9385}, ! Handle
  Medium Office Electric Equipment Saturday Schedule, ! Name
  {0b2f5bbb-22cb-4fe8-807e-bf15c7767389}, ! Schedule Type Limits Name
  ,                                       ! Interpolate to Timestep