
OS:Version,
  {7ffd4a1f-f95b-417d-b99d-b1b51334cd78}, !- Handle
  3.4.0;                                  !- Version Identifier

OS:SimulationControl,
  {9a896f84-b9c2-4780-a1be-9b7c8e00538a}, !- Handle
  Yes,                                    !- Do Zone Sizing Calculation
  Yes,                                    !- Do System Sizing Calculation
  ,                                       !- Do Plant Sizing Calculation
  No,                                     !- Run Simulation for Sizing Periods
  Yes;                                    !- Run Simulation for Weather File Run Periods

OS:Timestep,
  {d22041d6-cf71-4595-8c09-afcd04a86f5d}, !- Handle
  6;                                      !- Number of Timesteps per Hour

OS:RunPeriod,
  {86e936f4-a45b-42e3-907b-d9b98b3900ab}, !- Handle
  Run Period 1,                           !- Name
  1,                                      !- Begin Month
  1,                                      !- Begin Day of Month
  12,                                     !- End Month
  31,                                     !- End Day of Month
  No,                                     !- Use Weather File Holidays and Special Days
  No,                                     !- Use Weather File Daylight Saving Period
  No,                                     !- Apply Weekend Holiday Rule
  Yes,                                    !- Use Weather File Rain Indicators
  Yes,                                    !- Use Weather File Snow Indicators
  1;                                      !- Number of Times Runperiod to be Repeated

OS:SurfaceConvectionAlgorithm:Inside,
  {9472425d-bad4-42db-98a8-6d1bc4d23877}, !- Handle
  TARP;                                   !- Algorithm

OS:SurfaceConvectionAlgorithm:Outside,
  {1553c3c3-7a22-4848-be1a-669832a34da0}, !- Handle
  DOE-2;                                  !- Algorithm

OS:HeatBalanceAlgorithm,
  {3344b7bd-56dd-46b6-9ba6-1743956b6341}, !- Handle
  ConductionTransferFunction,             !- Algorithm
  200;                                    !- Surface Temperature Upper Limit {C}

OS:ZoneAirHeatBalanceAlgorithm,
  {e12e59dd-5dbe-4bab-bf05-52ff9f065ec3}, !- Handle
  ThirdOrderBackwardDifference;           !- Algorithm

OS:ConvergenceLimits,
  {de57accf-a280-42d3-802f-307d34636a87}, !- Handle
  1;                                      !- Minimum System Timestep {minutes}

OS:ShadowCalculation,
  {48d2246d-2dca-42f5-95da-16f9fbe490f1}, !- Handle
  PolygonClipping,                        !- Shading Calculation Method
  ,                                       !- Shading Calculation Update Frequency Method
  20,                                     !- Shading Calculation Update Frequency
  15000,                                  !- Maximum Figures in Shadow Overlap Calculations
  ,                                       !- Polygon Clipping Algorithm
  512,                                    !- Pixel Counting Resolution
  ,                                       !- Sky Diffuse Modeling Algorithm
  No,                                     !- Output External Shading Calculation Results
  No,                                     !- Disable Self-Shading Within Shading Zone Groups
  No;                                     !- Disable Self-Shading From Shading Zone Groups to Other Zones

OS:Site,
  {d89b94b3-477a-464f-b8da-c37a32d592af}, !- Handle
  Site 1,                                 !- Name
  41.77,                                  !- Latitude {deg}
  -87.75,                                 !- Longitude {deg}
  -6,                                     !- Time Zone {hr}
  190,                                    !- Elevation {m}
  ;                                       !- Terrain

OS:Site:GroundTemperature:BuildingSurface,
  {2f470957-3e0c-4a99-8688-840234112a61}, !- Handle
  19.527,                                 !- January Ground Temperature {C}
  19.502,                                 !- February Ground Temperature {C}
  19.536,                                 !- March Ground Temperature {C}
  19.598,                                 !- April Ground Temperature {C}
  20.002,                                 !- May Ground Temperature {C}
  21.64,                                  !- June Ground Temperature {C}
  22.225,                                 !- July Ground Temperature {C}
  22.375,                                 !- August Ground Temperature {C}
  21.449,                                 !- September Ground Temperature {C}
  20.121,                                 !- October Ground Temperature {C}
  19.802,                                 !- November Ground Temperature {C}
  19.633;                                 !- December Ground Temperature {C}

OS:Site:GroundTemperature:Deep,
  {015efc36-7214-4cdc-98aa-c7f21e0eecf0}, !- Handle
  19.527,                                 !- January Deep Ground Temperature {C}
  19.502,                                 !- February Deep Ground Temperature {C}
  19.536,                                 !- March Deep Ground Temperature {C}
  19.598,                                 !- April Deep Ground Temperature {C}
  20.002,                                 !- May Deep Ground Temperature {C}
  21.64,                                  !- June Deep Ground Temperature {C}
  22.225,                                 !- July Deep Ground Temperature {C}
  22.375,                                 !- August Deep Ground Temperature {C}
  21.449,                                 !- September Deep Ground Temperature {C}
  20.121,                                 !- October Deep Ground Temperature {C}
  19.802,                                 !- November Deep Ground Temperature {C}
  19.633;                                 !- December Deep Ground Temperature {C}

OS:Site:WaterMainsTemperature,
  {1f12ba2c-8d86-471e-b25e-7e1949b5c868}, !- Handle
  Correlation,                            !- Calculation Method
  ,                                       !- Temperature Schedule Name
  9.69,                                   !- Annual Average Outdoor Air Temperature {C}
  28.1;                                   !- Maximum Difference In Monthly Average Outdoor Air Temperatures {deltaC}

OS:SizingPeriod:DesignDay,
  {2ffe3efa-9e94-4ee5-aed8-2a97b7df557c}, !- Handle
  Sizing Period Design Day 1,             !- Name
  -20.6,                                  !- Maximum Dry-Bulb Temperature {C}
  0,                                      !- Daily Dry-Bulb Temperature Range {deltaC}
  99063,                                  !- Barometric Pressure {Pa}
  4.9,                                    !- Wind Speed {m/s}
  270,                                    !- Wind Direction {deg}
  0,                                      !- Sky Clearness
  No,                                     !- Rain Indicator
  No,                                     !- Snow Indicator
  21,                                     !- Day of Month
  1,                                      !- Month
  WinterDesignDay,                        !- Day Type
  No,                                     !- Daylight Saving Time Indicator
  WetBulb,                                !- Humidity Condition Type
  ,                                       !- Humidity Condition Day Schedule Name
  -20.6,                                  !- Wetbulb or DewPoint at Maximum Dry-Bulb {C}
  ,                                       !- Humidity Ratio at Maximum Dry-Bulb {kgWater/kgDryAir}
  ,                                       !- Enthalpy at Maximum Dry-Bulb {J/kg}
  ;                                       !- Dry-Bulb Temperature Range Modifier Type

OS:SizingPeriod:DesignDay,
  {3a6accd4-27de-4b8f-834f-04cd9b055c53}, !- Handle
  Sizing Period Design Day 2,             !- Name
  33.2,                                   !- Maximum Dry-Bulb Temperature {C}
  10.7,                                   !- Daily Dry-Bulb Temperature Range {deltaC}
  99063,                                  !- Barometric Pressure {Pa}
  5.3,                                    !- Wind Speed {m/s}
  230,                                    !- Wind Direction {deg}
  1,                                      !- Sky Clearness
  No,                                     !- Rain Indicator
  No,                                     !- Snow Indicator
  21,                                     !- Day of Month
  7,                                      !- Month
  SummerDesignDay,                        !- Day Type
  No,                                     !- Daylight Saving Time Indicator
  WetBulb,                                !- Humidity Condition Type
  ,                                       !- Humidity Condition Day Schedule Name
  23.8,                                   !- Wetbulb or DewPoint at Maximum Dry-Bulb {C}
  ,                                       !- Humidity Ratio at Maximum Dry-Bulb {kgWater/kgDryAir}
  ,                                       !- Enthalpy at Maximum Dry-Bulb {J/kg}
  ;                                       !- Dry-Bulb Temperature Range Modifier Type

OS:ScheduleTypeLimits,
  {9fb242af-866e-43b2-9e36-20f2ec391279}, !- Handle
  Temperature,                            !- Name
  -60,                                    !- Lower Limit Value
  200,                                    !- Upper Limit Value
  CONTINUOUS,                             !- Numeric Type
  Temperature;                            !- Unit Type

OS:DefaultScheduleSet,
  {c0328153-1299-4213-b6f7-8540652d4880}, !- Handle
  Default Schedules,                      !- Name
  ,                                       !- Hours of Operation Schedule Name
  {09edddef-4b83-4a34-8026-9bc707dcadda}, !- Number of People Schedule Name
  {bd24cb41-52de-40d3-b570-e7f98ced69d6}, !- People Activity Level Schedule Name
  {122868d6-b02c-4d77-bd09-0dd6db8c2b67}, !- Lighting Schedule Name
  {d102ddc0-b56d-4d45-94f9-32a83bc51fd9}, !- Electric Equipment Schedule Name
  {6c55330b-333e-4352-9f6e-8552d1fd84b9}, !- Gas Equipment Schedule Name
  {a82adb05-983a-45da-8edf-1631bd981ef3}, !- Hot Water Equipment Schedule Name
  {3894555f-e927-4bc3-a4b5-6e5425e9f9da}, !- Infiltration Schedule Name
  ,                                       !- Steam Equipment Schedule Name
  ;                                       !- Other Equipment Schedule Name

OS:Schedule:Ruleset,
  {09edddef-4b83-4a34-8026-9bc707dcadda}, !- Handle
  Medium Office Number of People Schedule, !- Name
  {e1417495-0923-49bc-8a1e-0fe3989380a2}, !- Schedule Type Limits Name
  {dfe36e30-58a0-478e-89fd-92bda8ee06cc}, !- Default Day Schedule Name
  {177934c3-4fb3-44d7-9b4d-6db3528c3ae3}; !- Summer Design Day Schedule Name

OS:Schedule:Day,
  {dfe36e30-58a0-478e-89fd-92bda8ee06cc}, !- Handle
  Medium Office Number of People All Other Days Schedule, !- Name
  {e1417495-0923-49bc-8a1e-0fe3989380a2}, !- Schedule Type Limits Name
  ,                                       !- Interpolate to Timestep
  24,                                     !- Hour 1
  0,                                      !- Minute 1
  0;                                      !- Value Until Time 1

OS:Schedule:Day,
  {0fb3d1ba-b689-4e52-8c8b-e8b3f621ea9d}, !- Handle
  Medium Office Number of People Summer Design Day Schedule, !- Name
  ,                                       !- Schedule Type Limits Name
  ,                                       !- Interpolate to Timestep
  6,                                      !- Hour 1
  0,                                      !- Minute 1
  0,                                      !- Value Until Time 1
  22,                                     !- Hour 2
  0,                                      !- Minute 2
  1,                                      !- Value Until Time 2
  24,                                     !- Hour 3
  0,                                      !- Minute 3
  0.05;                                   !- Value Until Time 3

OS:Schedule:Day,
  {177934c3-4fb3-44d7-9b4d-6db3528c3ae3}, !- Handle
  Medium Office Number of People Summer Design Day Schedule 1, !- Name
  {e1417495-0923-49bc-8a1e-0fe3989380a2}, !- Schedule Type Limits Name
  ,                                       !- Interpolate to Timestep
  6,                                      !- Hour 1
  0,                                      !- Minute 1
  0,                                      !- Value Until Time 1
  22,                                     !- Hour 2
  0,                                      !- Minute 2
  1,                                      !- Value Until Time 2
  24,                                     !- Hour 3
  0,                                      !- Minute 3
  0.05;                                   !- Value Until Time 3

OS:Schedule:Rule,
  {30388701-766d-4883-8cdb-eca7fd72619b}, !- Handle
  Medium Office Number of People Schedule Weekdays Rule, !- Name
  {09edddef-4b83-4a34-8026-9bc707dcadda}, !- Schedule Ruleset Name
  1,                                      !- Rule Order
  {68303b3e-a9d3-4a87-b03b-795f455a8484}, !- Day Schedule Name
  ,                                       !- Apply Sunday
  Yes,                                    !- Apply Monday
  Yes,                                    !- Apply Tuesday
  Yes,                                    !- Apply Wednesday
  Yes,                                    !- Apply Thursday
  Yes;                                    !- Apply Friday

OS:Schedule:Day,
  {68303b3e-a9d3-4a87-b03b-795f455a8484}, !- Handle
  Medium Office Number of People Weekdays Schedule, !- Name
  {e1417495-0923-49bc-8a1e-0fe3989380a2}, !- Schedule Type Limits Name
  ,                                       !- Interpolate to Timestep
  6,                                      !- Hour 1
  0,                                      !- Minute 1
  0,                                      !- Value Until Time 1
  7,                                      !- Hour 2
  0,                                      !- Minute 2
  0.1,                                    !- Value Until Time 2
  8,                                      !- Hour 3
  0,                                      !- Minute 3
  0.2,                                    !- Value Until Time 3
  12,                                     !- Hour 4
  0,                                      !- Minute 4
  0.95,                                   !- Value Until Time 4
  13,                                     !- Hour 5
  0,                                      !- Minute 5
  0.5,                                    !- Value Until Time 5
  17,                                     !- Hour 6
  0,                                      !- Minute 6
  0.95,                                   !- Value Until Time 6
  18,                                     !- Hour 7
  0,                                      !- Minute 7
  0.7,                                    !- Value Until Time 7
  20,                                     !- Hour 8
  0,                                      !- Minute 8
  0.4,                                    !- Value Until Time 8
  22,                                     !- Hour 9
  0,                                      !- Minute 9
  0.1,                                    !- Value Until Time 9
  24,                                     !- Hour 10
  0,                                      !- Minute 10
  0.05;                                   !- Value Until Time 10

OS:Schedule:Rule,
  {d873e9d0-87e6-4712-bde1-608a5b3f2d32}, !- Handle
  Medium Office Number of People Schedule Saturday Rule, !- Name
  {09edddef-4b83-4a34-8026-9bc707dcadda}, !- Schedule Ruleset Name
  0,                                      !- Rule Order
  {53b696be-ba1d-40d8-b248-f3a2bcd5136d}, !- Day Schedule Name
  ,                                       !- Apply Sunday
  ,                                       !- Apply Monday
  ,                                       !- Apply Tuesday
  ,                                       !- Apply Wednesday
  ,                                       !- Apply Thursday
  ,                                       !- Apply Friday
  Yes;                                    !- Apply Saturday

OS:Schedule:Day,
  {53b696be-ba1d-40d8-b248-f3a2bcd5136d}, !- Handle
  Medium Office Number of People Saturday Schedule, !- Name
  {e1417495-0923-49bc-8a1e-0fe3989380a2}, !- Schedule Type Limits Name
  ,                                       !- Interpolate to Timestep
  6,                                      !- Hour 1
  0,                                      !- Minute 1
  0,                                      !- Value Until Time 1
  8,                                      !- Hour 2
  0,                                      !- Minute 2
  0.1,                                    !- Value Until Time 2
  14,                                     !- Hour 3
  0,                                      !- Minute 3
  0.5,                                    !- Value Until Time 3
  17,                                     !- Hour 4
  0,                                      !- Minute 4
  0.1,                                    !- Value Until Time 4
  24,                                     !- Hour 5
  0,                                      !- Minute 5
  0;                                      !- Value Until Time 5

OS:ScheduleTypeLimits,
  {e1417495-0923-49bc-8a1e-0fe3989380a2}, !- Handle
  Fractional,                             !- Name
  0,                                      !- Lower Limit Value
  1,                                      !- Upper Limit Value
  Continuous;                             !- Numeric Type

OS:Schedule:Ruleset,
  {bd24cb41-52de-40d3-b570-e7f98ced69d6}, !- Handle
  Medium Office People Activity Level Schedule, !- Name
  {7d358452-d08d-4751-b35d-b9c5eba66112}, !- Schedule Type Limits Name
  {b21c9819-8aa3-4d76-b55d-21faa6846386}; !- Default Day Schedule Name

OS:Schedule:Day,
  {b21c9819-8aa3-4d76-b55d-21faa6846386}, !- Handle
  Medium Office People Activity Level All Days Schedule, !- Name
  {7d358452-d08d-4751-b35d-b9c5eba66112}, !- Schedule Type Limits Name
  ,                                       !- Interpolate to Timestep
  24,                                     !- Hour 1
  0,                                      !- Minute 1
  120;                                    !- Value Until Time 1

OS:ScheduleTypeLimits,
  {7d358452-d08d-4751-b35d-b9c5eba66112}, !- Handle
  ActivityLevel,                          !- Name
  0,                                      !- Lower Limit Value
  ,                                       !- Upper Limit Value
  Continuous,                             !- Numeric Type
  ActivityLevel;                          !- Unit Type

OS:Schedule:Ruleset,
  {122868d6-b02c-4d77-bd09-0dd6db8c2b67}, !- Handle
  Medium Office Lighting Schedule,        !- Name
  {e1417495-0923-49bc-8a1e-0fe3989380a2}, !- Schedule Type Limits Name
  {e3d94a45-c6b3-440b-ab6c-c146e36ecb93}, !- Default Day Schedule Name
  {57dc33b0-de28-4c77-874e-cd5ed14d3cc1}, !- Summer Design Day Schedule Name
  {31068acd-f5d5-42f4-a85d-4b90b98faac2}; !- Winter Design Day Schedule Name

OS:Schedule:Day,
  {e3d94a45-c6b3-440b-ab6c-c146e36ecb93}, !- Handle
  Medium Office Lighting All Other Days Schedule, !- Name
  {e1417495-0923-49bc-8a1e-0fe3989380a2}, !- Schedule Type Limits Name
  ,                                       !- Interpolate to Timestep
  24,                                     !- Hour 1
  0,                                      !- Minute 1
  0.05;                                   !- Value Until Time 1

OS:Schedule:Day,
  {6558d9a6-7545-438f-970e-4906ad8fc905}, !- Handle
  Medium Office Lighting Summer Design Day Schedule, !- Name
  ,                                       !- Schedule Type Limits Name
  ,                                       !- Interpolate to Timestep
  6,                                      !- Hour 1
  0,                                      !- Minute 1
  1,                                      !- Value Until Time 1
  24,                                     !- Hour 2
  0,                                      !- Minute 2
  0;                                      !- Value Until Time 2

OS:Schedule:Day,
  {57dc33b0-de28-4c77-874e-cd5ed14d3cc1}, !- Handle
  Medium Office Lighting Summer Design Day Schedule 1, !- Name
  {e1417495-0923-49bc-8a1e-0fe3989380a2}, !- Schedule Type Limits Name
  ,                                       !- Interpolate to Timestep
  6,                                      !- Hour 1
  0,                                      !- Minute 1
  1,                                      !- Value Until Time 1
  24,                                     !- Hour 2
  0,                                      !- Minute 2
  0;                                      !- Value Until Time 2

OS:Schedule:Day,
  {05748907-0b5f-4d66-8523-9fe35ec1a381}, !- Handle
  Medium Office Lighting Winter Design Day Schedule, !- Name
  ,                                       !- Schedule Type Limits Name
  ,                                       !- Interpolate to Timestep
  24,                                     !- Hour 1
  0,                                      !- Minute 1
  0;                                      !- Value Until Time 1

OS:Schedule:Day,
  {31068acd-f5d5-42f4-a85d-4b90b98faac2}, !- Handle
  Medium Office Lighting Winter Design Day Schedule 1, !- Name
  {e1417495-0923-49bc-8a1e-0fe3989380a2}, !- Schedule Type Limits Name
  ,                                       !- Interpolate to Timestep
  24,                                     !- Hour 1
  0,                                      !- Minute 1
  0;                                      !- Value Until Time 1

OS:Schedule:Rule,
  {c0edeede-0d30-493a-9d3d-872bd1ed86df}, !- Handle
  Medium Office Lighting Schedule Weekdays Rule, !- Name
  {122868d6-b02c-4d77-bd09-0dd6db8c2b67}, !- Schedule Ruleset Name
  1,                                      !- Rule Order
  {cae50817-efde-4cf0-ba42-f26c88540d23}, !- Day Schedule Name
  ,                                       !- Apply Sunday
  Yes,                                    !- Apply Monday
  Yes,                                    !- Apply Tuesday
  Yes,                                    !- Apply Wednesday
  Yes,                                    !- Apply Thursday
  Yes;                                    !- Apply Friday

OS:Schedule:Day,
  {cae50817-efde-4cf0-ba42-f26c88540d23}, !- Handle
  Medium Office Lighting Weekdays Schedule, !- Name
  {e1417495-0923-49bc-8a1e-0fe3989380a2}, !- Schedule Type Limits Name
  ,                                       !- Interpolate to Timestep
  5,                                      !- Hour 1
  0,                                      !- Minute 1
  0.05,                                   !- Value Until Time 1
  7,                                      !- Hour 2
  0,                                      !- Minute 2
  0.1,                                    !- Value Until Time 2
  8,                                      !- Hour 3
  0,                                      !- Minute 3
  0.3,                                    !- Value Until Time 3
  17,                                     !- Hour 4
  0,                                      !- Minute 4
  0.9,                                    !- Value Until Time 4
  18,                                     !- Hour 5
  0,                                      !- Minute 5
  0.7,                                    !- Value Until Time 5
  20,                                     !- Hour 6
  0,                                      !- Minute 6
  0.5,                                    !- Value Until Time 6
  22,                                     !- Hour 7
  0,                                      !- Minute 7
  0.3,                                    !- Value Until Time 7
  23,                                     !- Hour 8
  0,                                      !- Minute 8
  0.1,                                    !- Value Until Time 8
  24,                                     !- Hour 9
  0,                                      !- Minute 9
  0.05;                                   !- Value Until Time 9

OS:Schedule:Rule,
  {55995440-6cf2-4eb4-afe7-892dfbcf2e6d}, !- Handle
  Medium Office Lighting Schedule Saturday Rule, !- Name
  {122868d6-b02c-4d77-bd09-0dd6db8c2b67}, !- Schedule Ruleset Name
  0,                                      !- Rule Order
  {3068fcd0-3de6-4ab5-9958-f52595185b68}, !- Day Schedule Name
  ,                                       !- Apply Sunday
  ,                                       !- Apply Monday
  ,                                       !- Apply Tuesday
  ,                                       !- Apply Wednesday
  ,                                       !- Apply Thursday
  ,                                       !- Apply Friday
  Yes;                                    !- Apply Saturday

OS:Schedule:Day,
  {3068fcd0-3de6-4ab5-9958-f52595185b68}, !- Handle
  Medium Office Lighting Saturday Schedule, !- Name
  {e1417495-0923-49bc-8a1e-0fe3989380a2}, !- Schedule Type Limits Name
  ,                                       !- Interpolate to Timestep
  6,                                      !- Hour 1
  0,                                      !- Minute 1
  0.05,                                   !- Value Until Time 1
  8,                                      !- Hour 2
  0,                                      !- Minute 2
  0.1,                                    !- Value Until Time 2
  14,                                     !- Hour 3
  0,                                      !- Minute 3
  0.5,                                    !- Value Until Time 3
  17,                                     !- Hour 4
  0,                                      !- Minute 4
  0.15,                                   !- Value Until Time 4
  24,                                     !- Hour 5
  0,                                      !- Minute 5
  0.05;                                   !- Value Until Time 5

OS:Schedule:Ruleset,
  {d102ddc0-b56d-4d45-94f9-32a83bc51fd9}, !- Handle
  Medium Office Electric Equipment Schedule, !- Name
  {e1417495-0923-49bc-8a1e-0fe3989380a2}, !- Schedule Type Limits Name
  {f8a6b858-ff3a-4ff3-b885-4cc396824377}, !- Default Day Schedule Name
  {7975b42d-c261-47f9-bfb1-a1fc40c31aa7}, !- Summer Design Day Schedule Name
  {6c760e67-9c0f-4b49-887e-f7a80e2c91d1}; !- Winter Design Day Schedule Name

OS:Schedule:Day,
  {f8a6b858-ff3a-4ff3-b885-4cc396824377}, !- Handle
  Medium Office Electric Equipment All Other Days Schedule, !- Name
  {e1417495-0923-49bc-8a1e-0fe3989380a2}, !- Schedule Type Limits Name
  ,                                       !- Interpolate to Timestep
  24,                                     !- Hour 1
  0,                                      !- Minute 1
  0.3;                                    !- Value Until Time 1

OS:Schedule:Day,
  {5e1ad041-d4d7-4294-bd31-f31d4e13d3b4}, !- Handle
  Medium Office Electric Equipment Summer Design Day Schedule, !- Name
  ,                                       !- Schedule Type Limits Name
  ,                                       !- Interpolate to Timestep
  6,                                      !- Hour 1
  0,                                      !- Minute 1
  1,                                      !- Value Until Time 1
  24,                                     !- Hour 2
  0,                                      !- Minute 2
  0;                                      !- Value Until Time 2

OS:Schedule:Day,
  {7975b42d-c261-47f9-bfb1-a1fc40c31aa7}, !- Handle
  Medium Office Electric Equipment Summer Design Day Schedule 1, !- Name
  {e1417495-0923-49bc-8a1e-0fe3989380a2}, !- Schedule Type Limits Name
  ,                                       !- Interpolate to Timestep
  6,                                      !- Hour 1
  0,                                      !- Minute 1
  1,                                      !- Value Until Time 1
  24,                                     !- Hour 2
  0,                                      !- Minute 2
  0;                                      !- Value Until Time 2

OS:Schedule:Day,
  {640a05f8-19c0-42dd-8000-a476cb8093a9}, !- Handle
  Medium Office Electric Equipment Winter Design Day Schedule, !- Name
  ,                                       !- Schedule Type Limits Name
  ,                                       !- Interpolate to Timestep
  24,                                     !- Hour 1
  0,                                      !- Minute 1
  0;                                      !- Value Until Time 1

OS:Schedule:Day,
  {6c760e67-9c0f-4b49-887e-f7a80e2c91d1}, !- Handle
  Medium Office Electric Equipment Winter Design Day Schedule 1, !- Name
  {e1417495-0923-49bc-8a1e-0fe3989380a2}, !- Schedule Type Limits Name
  ,                                       !- Interpolate to Timestep
  24,                                     !- Hour 1
  0,                                      !- Minute 1
  0;                                      !- Value Until Time 1

OS:Schedule:Rule,
  {7bf44e7e-795a-4f74-bd27-764bbaba91ba}, !- Handle
  Medium Office Electric Equipment Schedule Weekdays Rule, !- Name
  {d102ddc0-b56d-4d45-94f9-32a83bc51fd9}, !- Schedule Ruleset Name
  1,                                      !- Rule Order
  {99958113-9c44-414a-9de6-cad10e8bcb18}, !- Day Schedule Name
  ,                                       !- Apply Sunday
  Yes,                                    !- Apply Monday
  Yes,                                    !- Apply Tuesday
  Yes,                                    !- Apply Wednesday
  Yes,                                    !- Apply Thursday
  Yes;                                    !- Apply Friday

OS:Schedule:Day,
  {99958113-9c44-414a-9de6-cad10e8bcb18}, !- Handle
  Medium Office Electric Equipment Weekdays Schedule, !- Name
  {e1417495-0923-49bc-8a1e-0fe3989380a2}, !- Schedule Type Limits Name
  ,                                       !- Interpolate to Timestep
  8,                                      !- Hour 1
  0,                                      !- Minute 1
  0.4,                                    !- Value Until Time 1
  12,                                     !- Hour 2