
OS:Version,
  {cb5bd58e-eaa3-4370-9dc1-cbb8cf53239c}, !- Handle
  1.11.6;                                 !- Version Identifier

OS:SimulationControl,
  {64094693-fb54-407f-b510-ea7fd7bdd166}, !- Handle
  Yes,                                    !- Do Zone Sizing Calculation
  Yes,                                    !- Do System Sizing Calculation
  ,                                       !- Do Plant Sizing Calculation
  No,                                     !- Run Simulation for Sizing Periods
  Yes;                                    !- Run Simulation for Weather File Run Periods

OS:Timestep,
  {22760743-9db0-4d7a-85f3-ee44c74d63b6}, !- Handle
  6;                                      !- Number of Timesteps per Hour

OS:RunPeriod,
  {bc6f1251-838e-4360-ac54-a75af6829fb8}, !- Handle
  Run Period 1,                           !- Name
  1,                                      !- Begin Month
  1,                                      !- Begin Day of Month
  12,                                     !- End Month
  31,                                     !- End Day of Month
  No,                                     !- Use Weather File Holidays and Special Days
  No,                                     !- Use Weather File Daylight Saving Period
  No,                                     !- Apply Weekend Holiday Rule
  Yes,                                    !- Use Weather File Rain Indicators
  Yes,                                    !- Use Weather File Snow Indicators
  1;                                      !- Number of Times Runperiod to be Repeated

OS:SurfaceConvectionAlgorithm:Inside,
  {dc98e9c6-251d-4532-b3ff-7eac632c1ff6}, !- Handle
  TARP;                                   !- Algorithm

OS:SurfaceConvectionAlgorithm:Outside,
  {2f85e304-5488-4db6-94dc-f94074138619}, !- Handle
  DOE-2;                                  !- Algorithm

OS:HeatBalanceAlgorithm,
  {0c1e4f2d-de88-402a-bb62-21a1cbc1d4b7}, !- Handle
  ConductionTransferFunction,             !- Algorithm
  200;                                    !- Surface Temperature Upper Limit {C}

OS:ZoneAirHeatBalanceAlgorithm,
  {9e8a86f4-c025-49a4-ae5a-7c492d77df7e}, !- Handle
  ThirdOrderBackwardDifference;           !- Algorithm

OS:ConvergenceLimits,
  {c18bc6dd-f1cd-4ddd-9f75-ec067f246a4a}, !- Handle
  1;                                      !- Minimum System Timestep {minutes}

OS:ShadowCalculation,
  {3c480849-f005-4ccc-8a7e-bbfdbbad676c}, !- Handle
  20,                                     !- Calculation Frequency
  15000;                                  !- Maximum Figures in Shadow Overlap Calculations

OS:Site,
  {c2500276-6953-4e40-af4c-2fbada5076b4}, !- Handle
  Site 1,                                 !- Name
  41.77,                                  !- Latitude {deg}
  -87.75,                                 !- Longitude {deg}
  -6,                                     !- Time Zone {hr}
  190,                                    !- Elevation {m}
  ;                                       !- Terrain

OS:Site:GroundTemperature:BuildingSurface,
  {abcd73ec-d971-46c0-b196-8e8fa6b50d99}, !- Handle
  19.527,                                 !- January Ground Temperature {C}
  19.502,                                 !- February Ground Temperature {C}
  19.536,                                 !- March Ground Temperature {C}
  19.598,                                 !- April Ground Temperature {C}
  20.002,                                 !- May Ground Temperature {C}
  21.64,                                  !- June Ground Temperature {C}
  22.225,                                 !- July Ground Temperature {C}
  22.375,                                 !- August Ground Temperature {C}
  21.449,                                 !- September Ground Temperature {C}
  20.121,                                 !- October Ground Temperature {C}
  19.802,                                 !- November Ground Temperature {C}
  19.633;                                 !- December Ground Temperature {C}

OS:Site:GroundTemperature:Deep,
  {6c8c3ad2-e03d-4d5a-9dd0-be01dc697e2b}, !- Handle
  19.527,                                 !- January Deep Ground Temperature {C}
  19.502,                                 !- February Deep Ground Temperature {C}
  19.536,                                 !- March Deep Ground Temperature {C}
  19.598,                                 !- April Deep Ground Temperature {C}
  20.002,                                 !- May Deep Ground Temperature {C}
  21.64,                                  !- June Deep Ground Temperature {C}
  22.225,                                 !- July Deep Ground Temperature {C}
  22.375,                                 !- August Deep Ground Temperature {C}
  21.449,                                 !- September Deep Ground Temperature {C}
  20.121,                                 !- October Deep Ground Temperature {C}
  19.802,                                 !- November Deep Ground Temperature {C}
  19.633;                                 !- December Deep Ground Temperature {C}

OS:Site:WaterMainsTemperature,
  {4b65b99d-a3ae-4867-a1e7-feb2f8e98549}, !- Handle
  Correlation,                            !- Calculation Method
  ,                                       !- Temperature Schedule Name
  9.69,                                   !- Annual Average Outdoor Air Temperature {C}
  28.1;                                   !- Maximum Difference In Monthly Average Outdoor Air Temperatures {deltaC}

OS:SizingPeriod:DesignDay,
  {3d393acb-8907-4ee6-91ea-f6422f4ad0d5}, !- Handle
  Sizing Period Design Day 1,             !- Name
  -20.6,                                  !- Maximum Dry-Bulb Temperature {C}
  0,                                      !- Daily Dry-Bulb Temperature Range {deltaC}
  -20.6,                                  !- Humidity Indicating Conditions at Maximum Dry-Bulb
  99063,                                  !- Barometric Pressure {Pa}
  4.9,                                    !- Wind Speed {m/s}
  270,                                    !- Wind Direction {deg}
  0,                                      !- Sky Clearness
  0,                                      !- Rain Indicator
  0,                                      !- Snow Indicator
  21,                                     !- Day of Month
  1,                                      !- Month
  WinterDesignDay,                        !- Day Type
  0,                                      !- Daylight Saving Time Indicator
  WetBulb,                                !- Humidity Indicating Type
  ,                                       !- Humidity Indicating Day Schedule Name
  DefaultMultipliers,                     !- Dry-Bulb Temperature Range Modifier Type
  ,                                       !- Dry-Bulb Temperature Range Modifier Schedule Name
  AshraeClearSky;                         !- Solar Model Indicator

OS:SizingPeriod:DesignDay,
  {51e0e7c9-202a-4e0d-9df0-5dc7b49461b1}, !- Handle
  Sizing Period Design Day 2,             !- Name
  33.2,                                   !- Maximum Dry-Bulb Temperature {C}
  10.7,                                   !- Daily Dry-Bulb Temperature Range {deltaC}
  23.8,                                   !- Humidity Indicating Conditions at Maximum Dry-Bulb
  99063,                                  !- Barometric Pressure {Pa}
  5.3,                                    !- Wind Speed {m/s}
  230,                                    !- Wind Direction {deg}
  1,                                      !- Sky Clearness
  0,                                      !- Rain Indicator
  0,                                      !- Snow Indicator
  21,                                     !- Day of Month
  7,                                      !- Month
  SummerDesignDay,                        !- Day Type
  0,                                      !- Daylight Saving Time Indicator
  WetBulb,                                !- Humidity Indicating Type
  ,                                       !- Humidity Indicating Day Schedule Name
  DefaultMultipliers,                     !- Dry-Bulb Temperature Range Modifier Type
  ,                                       !- Dry-Bulb Temperature Range Modifier Schedule Name
  AshraeClearSky;                         !- Solar Model Indicator

OS:ScheduleTypeLimits,
  {53c7a637-ece2-44b9-8625-0d899803d972}, !- Handle
  Temperature,                            !- Name
  -60,                                    !- Lower Limit Value
  200,                                    !- Upper Limit Value
  CONTINUOUS,                             !- Numeric Type
  Temperature;                            !- Unit Type

OS:DefaultScheduleSet,
  {840a031c-89fa-4f03-a9f2-959ed0f3461a}, !- Handle
  Default Schedules,                      !- Name
  ,                                       !- Hours of Operation Schedule Name
  {3514f295-9976-4209-b02b-815b9558b70f}, !- Number of People Schedule Name
  {ed5761b1-5349-4556-907b-143385337cac}, !- People Activity Level Schedule Name
  {3c9785f8-4064-4bb7-9d88-1374332d771b}, !- Lighting Schedule Name
  {d60ffd22-eb14-4146-b236-49de92c52ce6}, !- Electric Equipment Schedule Name
  {d1399cd1-d868-4d77-b7bd-e7d7826caa73}, !- Gas Equipment Schedule Name
  {7c0db9ba-af56-40e4-91d5-a0dda52f1ed2}, !- Hot Water Equipment Schedule Name
  {89f9431b-09ca-4786-a943-aed9b113532c}, !- Infiltration Schedule Name
  ,                                       !- Steam Equipment Schedule Name
  ;                                       !- Other Equipment Schedule Name

OS:Schedule:Ruleset,
  {3514f295-9976-4209-b02b-815b9558b70f}, !- Handle
  Medium Office Number of People Schedule, !- Name
  {6454a1fb-28c1-4877-b04c-4d5a63634869}, !- Schedule Type Limits Name
  {cd1f28aa-6517-4ae7-86fe-ab97164ea1dc}, !- Default Day Schedule Name
  {a763581a-736a-45a1-9ad4-884ab31a381f}; !- Summer Design Day Schedule Name

OS:Schedule:Day,
  {cd1f28aa-6517-4ae7-86fe-ab97164ea1dc}, !- Handle
  Medium Office Number of People All Other Days Schedule, !- Name
  {6454a1fb-28c1-4877-b04c-4d5a63634869}, !- Schedule Type Limits Name
  ,                                       !- Interpolate to Timestep
  24,                                     !- Hour 1
  0,                                      !- Minute 1
  0;                                      !- Value Until Time 1

OS:Schedule:Day,
  {06ebd2df-5e89-4e4c-b8c4-05581d7eddc1}, !- Handle
  Medium Office Number of People Summer Design Day Schedule, !- Name
  ,                                       !- Schedule Type Limits Name
  ,                                       !- Interpolate to Timestep
  6,                                      !- Hour 1
  0,                                      !- Minute 1
  0,                                      !- Value Until Time 1
  22,                                     !- Hour 2
  0,                                      !- Minute 2
  1,                                      !- Value Until Time 2
  24,                                     !- Hour 3
  0,                                      !- Minute 3
  0.05;                                   !- Value Until Time 3

OS:Schedule:Day,
  {a763581a-736a-45a1-9ad4-884ab31a381f}, !- Handle
  Medium Office Number of People Summer Design Day Schedule 1, !- Name
  {6454a1fb-28c1-4877-b04c-4d5a63634869}, !- Schedule Type Limits Name
  ,                                       !- Interpolate to Timestep
  6,                                      !- Hour 1
  0,                                      !- Minute 1
  0,                                      !- Value Until Time 1
  22,                                     !- Hour 2
  0,                                      !- Minute 2
  1,                                      !- Value Until Time 2
  24,                                     !- Hour 3
  0,                                      !- Minute 3
  0.05;                                   !- Value Until Time 3

OS:Schedule:Rule,
  {d9463b73-a6ad-4f1e-b538-5d38683d742d}, !- Handle
  Medium Office Number of People Schedule Weekdays Rule, !- Name
  {3514f295-9976-4209-b02b-815b9558b70f}, !- Schedule Ruleset Name
  1,                                      !- Rule Order
  {0b32e64f-3d0f-4f1f-9b95-48a0f1de3f67}, !- Day Schedule Name
  ,                                       !- Apply Sunday
  Yes,                                    !- Apply Monday
  Yes,                                    !- Apply Tuesday
  Yes,                                    !- Apply Wednesday
  Yes,                                    !- Apply Thursday
  Yes;                                    !- Apply Friday

OS:Schedule:Day,
  {0b32e64f-3d0f-4f1f-9b95-48a0f1de3f67}, !- Handle
  Medium Office Number of People Weekdays Schedule, !- Name
  {6454a1fb-28c1-4877-b04c-4d5a63634869}, !- Schedule Type Limits Name
  ,                                       !- Interpolate to Timestep
  6,                                      !- Hour 1
  0,                                      !- Minute 1
  0,                                      !- Value Until Time 1
  7,                                      !- Hour 2
  0,                                      !- Minute 2
  0.1,                                    !- Value Until Time 2
  8,                                      !- Hour 3
  0,                                      !- Minute 3
  0.2,                                    !- Value Until Time 3
  12,                                     !- Hour 4
  0,                                      !- Minute 4
  0.95,                                   !- Value Until Time 4
  13,                                     !- Hour 5
  0,                                      !- Minute 5
  0.5,                                    !- Value Until Time 5
  17,                                     !- Hour 6
  0,                                      !- Minute 6
  0.95,                                   !- Value Until Time 6
  18,                                     !- Hour 7
  0,                                      !- Minute 7
  0.7,                                    !- Value Until Time 7
  20,                                     !- Hour 8
  0,                                      !- Minute 8
  0.4,                                    !- Value Until Time 8
  22,                                     !- Hour 9
  0,                                      !- Minute 9
  0.1,                                    !- Value Until Time 9
  24,                                     !- Hour 10
  0,                                      !- Minute 10
  0.05;                                   !- Value Until Time 10

OS:Schedule:Rule,
  {d48f85f0-2b1b-457c-a48d-81b11dc30b93}, !- Handle
  Medium Office Number of People Schedule Saturday Rule, !- Name
  {3514f295-9976-4209-b02b-815b9558b70f}, !- Schedule Ruleset Name
  0,                                      !- Rule Order
  {02787d16-407e-4cc6-9015-fb022970bc4e}, !- Day Schedule Name
  ,                                       !- Apply Sunday
  ,                                       !- Apply Monday
  ,                                       !- Apply Tuesday
  ,                                       !- Apply Wednesday
  ,                                       !- Apply Thursday
  ,                                       !- Apply Friday
  Yes;                                    !- Apply Saturday

OS:Schedule:Day,
  {02787d16-407e-4cc6-9015-fb022970bc4e}, !- Handle
  Medium Office Number of People Saturday Schedule, !- Name
  {6454a1fb-28c1-4877-b04c-4d5a63634869}, !- Schedule Type Limits Name
  ,                                       !- Interpolate to Timestep
  6,                                      !- Hour 1
  0,                                      !- Minute 1
  0,                                      !- Value Until Time 1
  8,                                      !- Hour 2
  0,                                      !- Minute 2
  0.1,                                    !- Value Until Time 2
  14,                                     !- Hour 3
  0,                                      !- Minute 3
  0.5,                                    !- Value Until Time 3
  17,                                     !- Hour 4
  0,                                      !- Minute 4
  0.1,                                    !- Value Until Time 4
  24,                                     !- Hour 5
  0,                                      !- Minute 5
  0;                                      !- Value Until Time 5

OS:ScheduleTypeLimits,
  {6454a1fb-28c1-4877-b04c-4d5a63634869}, !- Handle
  Fractional,                             !- Name
  0,                                      !- Lower Limit Value
  1,                                      !- Upper Limit Value
  Continuous;                             !- Numeric Type

OS:Schedule:Ruleset,
  {ed5761b1-5349-4556-907b-143385337cac}, !- Handle
  Medium Office People Activity Level Schedule, !- Name
  {298efd45-a5b6-4ef7-8c4a-9eb44742caca}, !- Schedule Type Limits Name
  {002afdd0-13a2-46c4-aab8-cadf72369909}; !- Default Day Schedule Name

OS:Schedule:Day,
  {002afdd0-13a2-46c4-aab8-cadf72369909}, !- Handle
  Medium Office People Activity Level All Days Schedule, !- Name
  {298efd45-a5b6-4ef7-8c4a-9eb44742caca}, !- Schedule Type Limits Name
  ,                                       !- Interpolate to Timestep
  24,                                     !- Hour 1
  0,                                      !- Minute 1
  120;                                    !- Value Until Time 1

OS:ScheduleTypeLimits,
  {298efd45-a5b6-4ef7-8c4a-9eb44742caca}, !- Handle
  ActivityLevel,                          !- Name
  0,                                      !- Lower Limit Value
  ,                                       !- Upper Limit Value
  Continuous,                             !- Numeric Type
  ActivityLevel;                          !- Unit Type

OS:Schedule:Ruleset,
  {3c9785f8-4064-4bb7-9d88-1374332d771b}, !- Handle
  Medium Office Lighting Schedule,        !- Name
  {6454a1fb-28c1-4877-b04c-4d5a63634869}, !- Schedule Type Limits Name
  {959e94fe-52a0-4438-bc14-be652f8fb29e}, !- Default Day Schedule Name
  {d893d50e-0e95-4595-9447-75b332de75ea}, !- Summer Design Day Schedule Name
  {89dffbaa-81fa-49b2-aba2-a3a03ce73719}; !- Winter Design Day Schedule Name

OS:Schedule:Day,
  {959e94fe-52a0-4438-bc14-be652f8fb29e}, !- Handle
  Medium Office Lighting All Other Days Schedule, !- Name
  {6454a1fb-28c1-4877-b04c-4d5a63634869}, !- Schedule Type Limits Name
  ,                                       !- Interpolate to Timestep
  24,                                     !- Hour 1
  0,                                      !- Minute 1
  0.05;                                   !- Value Until Time 1

OS:Schedule:Day,
  {42b11011-fb79-47bf-a12c-a9fde785baa3}, !- Handle
  Medium Office Lighting Summer Design Day Schedule, !- Name
  ,                                       !- Schedule Type Limits Name
  ,                                       !- Interpolate to Timestep
  6,                                      !- Hour 1
  0,                                      !- Minute 1
  1,                                      !- Value Until Time 1
  24,                                     !- Hour 2
  0,                                      !- Minute 2
  0;                                      !- Value Until Time 2

OS:Schedule:Day,
  {d893d50e-0e95-4595-9447-75b332de75ea}, !- Handle
  Medium Office Lighting Summer Design Day Schedule 1, !- Name
  {6454a1fb-28c1-4877-b04c-4d5a63634869}, !- Schedule Type Limits Name
  ,                                       !- Interpolate to Timestep
  6,                                      !- Hour 1
  0,                                      !- Minute 1
  1,                                      !- Value Until Time 1
  24,                                     !- Hour 2
  0,                                      !- Minute 2
  0;                                      !- Value Until Time 2

OS:Schedule:Day,
  {087a17ad-762e-481b-b887-86cd1f2c1d89}, !- Handle
  Medium Office Lighting Winter Design Day Schedule, !- Name
  ,                                       !- Schedule Type Limits Name
  ,                                       !- Interpolate to Timestep
  24,                                     !- Hour 1
  0,                                      !- Minute 1
  0;                                      !- Value Until Time 1

OS:Schedule:Day,
  {89dffbaa-81fa-49b2-aba2-a3a03ce73719}, !- Handle
  Medium Office Lighting Winter Design Day Schedule 1, !- Name
  {6454a1fb-28c1-4877-b04c-4d5a63634869}, !- Schedule Type Limits Name
  ,                                       !- Interpolate to Timestep
  24,                                     !- Hour 1
  0,                                      !- Minute 1
  0;                                      !- Value Until Time 1

OS:Schedule:Rule,
  {ed61a768-577e-403e-826e-58184c2f84a8}, !- Handle
  Medium Office Lighting Schedule Weekdays Rule, !- Name
  {3c9785f8-4064-4bb7-9d88-1374332d771b}, !- Schedule Ruleset Name
  1,                                      !- Rule Order
  {968f6098-632e-4135-95dc-9bac6ad5cd8d}, !- Day Schedule Name
  ,                                       !- Apply Sunday
  Yes,                                    !- Apply Monday
  Yes,                                    !- Apply Tuesday
  Yes,                                    !- Apply Wednesday
  Yes,                                    !- Apply Thursday
  Yes;                                    !- Apply Friday

OS:Schedule:Day,
  {968f6098-632e-4135-95dc-9bac6ad5cd8d}, !- Handle
  Medium Office Lighting Weekdays Schedule, !- Name
  {6454a1fb-28c1-4877-b04c-4d5a63634869}, !- Schedule Type Limits Name
  ,                                       !- Interpolate to Timestep
  5,                                      !- Hour 1
  0,                                      !- Minute 1
  0.05,                                   !- Value Until Time 1
  7,                                      !- Hour 2
  0,                                      !- Minute 2
  0.1,                                    !- Value Until Time 2
  8,                                      !- Hour 3
  0,                                      !- Minute 3
  0.3,                                    !- Value Until Time 3
  17,                                     !- Hour 4
  0,                                      !- Minute 4
  0.9,                                    !- Value Until Time 4
  18,                                     !- Hour 5
  0,                                      !- Minute 5
  0.7,                                    !- Value Until Time 5
  20,                                     !- Hour 6
  0,                                      !- Minute 6
  0.5,                                    !- Value Until Time 6
  22,                                     !- Hour 7
  0,                                      !- Minute 7
  0.3,                                    !- Value Until Time 7
  23,                                     !- Hour 8
  0,                                      !- Minute 8
  0.1,                                    !- Value Until Time 8
  24,                                     !- Hour 9
  0,                                      !- Minute 9
  0.05;                                   !- Value Until Time 9

OS:Schedule:Rule,
  {6508bcba-65be-44c4-9e83-6d1e5f98b153}, !- Handle
  Medium Office Lighting Schedule Saturday Rule, !- Name
  {3c9785f8-4064-4bb7-9d88-1374332d771b}, !- Schedule Ruleset Name
  0,                                      !- Rule Order
  {c1da532b-9082-483e-a500-3a0787150ec4}, !- Day Schedule Name
  ,                                       !- Apply Sunday
  ,                                       !- Apply Monday
  ,                                       !- Apply Tuesday
  ,                                       !- Apply Wednesday
  ,                                       !- Apply Thursday
  ,                                       !- Apply Friday
  Yes;                                    !- Apply Saturday

OS:Schedule:Day,
  {c1da532b-9082-483e-a500-3a0787150ec4}, !- Handle
  Medium Office Lighting Saturday Schedule, !- Name
  {6454a1fb-28c1-4877-b04c-4d5a63634869}, !- Schedule Type Limits Name
  ,                                       !- Interpolate to Timestep
  6,                                      !- Hour 1
  0,                                      !- Minute 1
  0.05,                                   !- Value Until Time 1
  8,                                      !- Hour 2
  0,                                      !- Minute 2
  0.1,                                    !- Value Until Time 2
  14,                                     !- Hour 3
  0,                                      !- Minute 3
  0.5,                                    !- Value Until Time 3
  17,                                     !- Hour 4
  0,                                      !- Minute 4
  0.15,                                   !- Value Until Time 4
  24,                                     !- Hour 5
  0,                                      !- Minute 5
  0.05;                                   !- Value Until Time 5

OS:Schedule:Ruleset,
  {d60ffd22-eb14-4146-b236-49de92c52ce6}, !- Handle
  Medium Office Electric Equipment Schedule, !- Name
  {6454a1fb-28c1-4877-b04c-4d5a63634869}, !- Schedule Type Limits Name
  {47beaab8-dfb4-4aa2-a135-9f4f02e7c061}, !- Default Day Schedule Name
  {f06ecd14-305c-4945-bf4f-ed93011499ef}, !- Summer Design Day Schedule Name
  {f02aa649-c499-4c8c-b229-fdf06f452adc}; !- Winter Design Day Schedule Name

OS:Schedule:Day,
  {47beaab8-dfb4-4aa2-a135-9f4f02e7c061}, !- Handle
  Medium Office Electric Equipment All Other Days Schedule, !- Name
  {6454a1fb-28c1-4877-b04c-4d5a63634869}, !- Schedule Type Limits Name
  ,                                       !- Interpolate to Timestep
  24,                                     !- Hour 1
  0,                                      !- Minute 1
  0.3;                                    !- Value Until Time 1

OS:Schedule:Day,
  {0fbe69bd-fa4c-4f3a-b8a3-c808275e6356}, !- Handle
  Medium Office Electric Equipment Summer Design Day Schedule, !- Name
  ,                                       !- Schedule Type Limits Name
  ,                                       !- Interpolate to Timestep
  6,                                      !- Hour 1
  0,                                      !- Minute 1
  1,                                      !- Value Until Time 1
  24,                                     !- Hour 2
  0,                                      !- Minute 2
  0;                                      !- Value Until Time 2

OS:Schedule:Day,
  {f06ecd14-305c-4945-bf4f-ed93011499ef}, !- Handle
  Medium Office Electric Equipment Summer Design Day Schedule 1, !- Name
  {6454a1fb-28c1-4877-b04c-4d5a63634869}, !- Schedule Type Limits Name
  ,                                       !- Interpolate to Timestep
  6,                                      !- Hour 1
  0,                                      !- Minute 1
  1,                                      !- Value Until Time 1
  24,                                     !- Hour 2
  0,                                      !- Minute 2
  0;                                      !- Value Until Time 2

OS:Schedule:Day,
  {a579032e-d06b-4bb6-8d2a-77ad00de8564}, !- Handle
  Medium Office Electric Equipment Winter Design Day Schedule, !- Name
  ,                                       !- Schedule Type Limits Name
  ,                                       !- Interpolate to Timestep
  24,                                     !- Hour 1
  0,                                      !- Minute 1
  0;                                      !- Value Until Time 1

OS:Schedule:Day,
  {f02aa649-c499-4c8c-b229-fdf06f452adc}, !- Handle
  Medium Office Electric Equipment Winter Design Day Schedule 1, !- Name
  {6454a1fb-28c1-4877-b04c-4d5a63634869}, !- Schedule Type Limits Name
  ,                                       !- Interpolate to Timestep
  24,                                     !- Hour 1
  0,                                      !- Minute 1
  0;                                      !- Value Until Time 1

OS:Schedule:Rule,
  {2b217e86-6071-490a-883f-458033bf936c}, !- Handle
  Medium Office Electric Equipment Schedule Weekdays Rule, !- Name
  {d60ffd22-eb14-4146-b236-49de92c52ce6}, !- Schedule Ruleset Name
  1,                                      !- Rule Order
  {cee24c61-6899-416d-82c5-3f84f6e2a78a}, !- Day Schedule Name
  ,                                       !- Apply Sunday
  Yes,                                    !- Apply Monday
  Yes,                                    !- Apply Tuesday
  Yes,                                    !- Apply Wednesday
  Yes,                                    !- Apply Thursday
  Yes;                                    !- Apply Friday

OS:Schedule:Day,
  {cee24c61-6899-416d-82c5-3f84f6e2a78a}, !- Handle
  Medium Office Electric Equipment Weekdays Schedule, !- Name
  {6454a1fb-28c1-4877-b04c-4d5a63634869}, !- Schedule Type Limits Name
  ,                                       !- Interpolate to Timestep
  8,                                      !- Hour 1
  0,                                      !- Minute 1
  0.4,                                    !- Value Until Time 1
  12,                                     !- Hour 2
  0,                                      !- Minute 2
  0.9,                                    !- Value Until Time 2
  13,                                     !- Hour 3
  0,                                      !- Minute 3
  0.8,                                    !- Value Until Time 3
  17,                                     !- Hour 4
  0,                                      !- Minute 4
  0.9,                                    !- Value Until Time 4
  18,                                     !- Hour 5
  0,                                      !- Minute 5
  0.8,                                    !- Value Until Time 5
  20,                                     !- Hour 6