
OS:Version,
  {dd3d04be-7008-4f26-937d-cc1d0eb84d38}, !- Handle
  1.12.3;                                 !- Version Identifier

OS:SimulationControl,
  {c3336ddf-b8e7-49d9-b5bf-a2b43c1c1472}, !- Handle
  Yes,                                    !- Do Zone Sizing Calculation
  Yes,                                    !- Do System Sizing Calculation
  ,                                       !- Do Plant Sizing Calculation
  No,                                     !- Run Simulation for Sizing Periods
  Yes;                                    !- Run Simulation for Weather File Run Periods

OS:Timestep,
  {381fe311-d8cd-4acc-8cfd-f078b00f6acf}, !- Handle
  6;                                      !- Number of Timesteps per Hour

OS:RunPeriod,
  {5505ec22-6fab-4b27-916f-2ea06a72755a}, !- Handle
  Run Period 1,                           !- Name
  1,                                      !- Begin Month
  1,                                      !- Begin Day of Month
  12,                                     !- End Month
  31,                                     !- End Day of Month
  No,                                     !- Use Weather File Holidays and Special Days
  No,                                     !- Use Weather File Daylight Saving Period
  No,                                     !- Apply Weekend Holiday Rule
  Yes,                                    !- Use Weather File Rain Indicators
  Yes,                                    !- Use Weather File Snow Indicators
  1;                                      !- Number of Times Runperiod to be Repeated

OS:SurfaceConvectionAlgorithm:Inside,
  {371247fe-d7da-4a7c-a653-d9cbd22e8445}, !- Handle
  TARP;                                   !- Algorithm

OS:SurfaceConvectionAlgorithm:Outside,
  {487e98d5-9224-4b63-974a-222ca05e9a68}, !- Handle
  DOE-2;                                  !- Algorithm

OS:HeatBalanceAlgorithm,
  {9c7e9470-0598-4d9f-b0e6-381e35a50e23}, !- Handle
  ConductionTransferFunction,             !- Algorithm
  200;                                    !- Surface Temperature Upper Limit {C}

OS:ZoneAirHeatBalanceAlgorithm,
  {0446f62c-b6b7-44c9-ac72-f4c3ab4dd4fd}, !- Handle
  ThirdOrderBackwardDifference;           !- Algorithm

OS:ConvergenceLimits,
  {e5bf9ab6-75d6-4a9d-8f76-bd8a03a9a62f}, !- Handle
  1;                                      !- Minimum System Timestep {minutes}

OS:ShadowCalculation,
  {02e08a50-7947-4c6d-85a4-340bd284c3dd}, !- Handle
  20,                                     !- Calculation Frequency
  15000;                                  !- Maximum Figures in Shadow Overlap Calculations

OS:Site,
  {1bbdfb6e-f6cd-49e5-9cd1-598de1e64762}, !- Handle
  Site 1,                                 !- Name
  41.77,                                  !- Latitude {deg}
  -87.75,                                 !- Longitude {deg}
  -6,                                     !- Time Zone {hr}
  190,                                    !- Elevation {m}
  ;                                       !- Terrain

OS:Site:GroundTemperature:BuildingSurface,
  {9b28d462-0064-4e26-9a7d-d8435fa02884}, !- Handle
  19.527,                                 !- January Ground Temperature {C}
  19.502,                                 !- February Ground Temperature {C}
  19.536,                                 !- March Ground Temperature {C}
  19.598,                                 !- April Ground Temperature {C}
  20.002,                                 !- May Ground Temperature {C}
  21.64,                                  !- June Ground Temperature {C}
  22.225,                                 !- July Ground Temperature {C}
  22.375,                                 !- August Ground Temperature {C}
  21.449,                                 !- September Ground Temperature {C}
  20.121,                                 !- October Ground Temperature {C}
  19.802,                                 !- November Ground Temperature {C}
  19.633;                                 !- December Ground Temperature {C}

OS:Site:GroundTemperature:Deep,
  {376c5087-c690-4ed7-bf6b-ea2ef5cfeb54}, !- Handle
  19.527,                                 !- January Deep Ground Temperature {C}
  19.502,                                 !- February Deep Ground Temperature {C}
  19.536,                                 !- March Deep Ground Temperature {C}
  19.598,                                 !- April Deep Ground Temperature {C}
  20.002,                                 !- May Deep Ground Temperature {C}
  21.64,                                  !- June Deep Ground Temperature {C}
  22.225,                                 !- July Deep Ground Temperature {C}
  22.375,                                 !- August Deep Ground Temperature {C}
  21.449,                                 !- September Deep Ground Temperature {C}
  20.121,                                 !- October Deep Ground Temperature {C}
  19.802,                                 !- November Deep Ground Temperature {C}
  19.633;                                 !- December Deep Ground Temperature {C}

OS:Site:WaterMainsTemperature,
  {c9e1bb16-99bd-405d-85a2-73b0d4b5cd80}, !- Handle
  Correlation,                            !- Calculation Method
  ,                                       !- Temperature Schedule Name
  9.69,                                   !- Annual Average Outdoor Air Temperature {C}
  28.1;                                   !- Maximum Difference In Monthly Average Outdoor Air Temperatures {deltaC}

OS:SizingPeriod:DesignDay,
  {2ac72e37-b758-4d3a-a682-32cf4abc4356}, !- Handle
  Sizing Period Design Day 1,             !- Name
  -20.6,                                  !- Maximum Dry-Bulb Temperature {C}
  0,                                      !- Daily Dry-Bulb Temperature Range {deltaC}
  -20.6,                                  !- Humidity Indicating Conditions at Maximum Dry-Bulb
  99063,                                  !- Barometric Pressure {Pa}
  4.9,                                    !- Wind Speed {m/s}
  270,                                    !- Wind Direction {deg}
  0,                                      !- Sky Clearness
  0,                                      !- Rain Indicator
  0,                                      !- Snow Indicator
  21,                                     !- Day of Month
  1,                                      !- Month
  WinterDesignDay,                        !- Day Type
  0,                                      !- Daylight Saving Time Indicator
  WetBulb,                                !- Humidity Indicating Type
  ,                                       !- Humidity Indicating Day Schedule Name
  DefaultMultipliers,                     !- Dry-Bulb Temperature Range Modifier Type
  ,                                       !- Dry-Bulb Temperature Range Modifier Schedule Name
  AshraeClearSky;                         !- Solar Model Indicator

OS:SizingPeriod:DesignDay,
  {4cb97a48-1267-4549-9cea-143f78f37edc}, !- Handle
  Sizing Period Design Day 2,             !- Name
  33.2,                                   !- Maximum Dry-Bulb Temperature {C}
  10.7,                                   !- Daily Dry-Bulb Temperature Range {deltaC}
  23.8,                                   !- Humidity Indicating Conditions at Maximum Dry-Bulb
  99063,                                  !- Barometric Pressure {Pa}
  5.3,                                    !- Wind Speed {m/s}
  230,                                    !- Wind Direction {deg}
  1,                                      !- Sky Clearness
  0,                                      !- Rain Indicator
  0,                                      !- Snow Indicator
  21,                                     !- Day of Month
  7,                                      !- Month
  SummerDesignDay,                        !- Day Type
  0,                                      !- Daylight Saving Time Indicator
  WetBulb,                                !- Humidity Indicating Type
  ,                                       !- Humidity Indicating Day Schedule Name
  DefaultMultipliers,                     !- Dry-Bulb Temperature Range Modifier Type
  ,                                       !- Dry-Bulb Temperature Range Modifier Schedule Name
  AshraeClearSky;                         !- Solar Model Indicator

OS:ScheduleTypeLimits,
  {544a3f0d-0547-4e67-80e9-4ba4d262d9bd}, !- Handle
  Temperature,                            !- Name
  -60,                                    !- Lower Limit Value
  200,                                    !- Upper Limit Value
  CONTINUOUS,                             !- Numeric Type
  Temperature;                            !- Unit Type

OS:DefaultScheduleSet,
  {59218541-2e27-483b-8199-6752cdc392e2}, !- Handle
  Default Schedules,                      !- Name
  ,                                       !- Hours of Operation Schedule Name
  {8b39fe89-8c95-4f7f-abdf-944070d4d84c}, !- Number of People Schedule Name
  {aff4bf83-e5c2-4f31-a37c-5b870d68cd04}, !- People Activity Level Schedule Name
  {d95d95b3-4e50-45f6-9db4-b9f897815e4e}, !- Lighting Schedule Name
  {1c80d324-de2c-4a63-9dc9-54176e405337}, !- Electric Equipment Schedule Name
  {5430780d-eae0-4454-86fb-c52991fe8b36}, !- Gas Equipment Schedule Name
  {93a57f96-9133-4775-8dfc-1e670e6904e0}, !- Hot Water Equipment Schedule Name
  {830380d1-5fb5-426a-a6fd-106964aaae93}, !- Infiltration Schedule Name
  ,                                       !- Steam Equipment Schedule Name
  ;                                       !- Other Equipment Schedule Name

OS:Schedule:Ruleset,
  {8b39fe89-8c95-4f7f-abdf-944070d4d84c}, !- Handle
  Medium Office Number of People Schedule, !- Name
  {7bbdb3e9-cb9d-4468-8520-0c127a61dc48}, !- Schedule Type Limits Name
  {a4eed9e7-6544-4681-ab56-05d20c2ee50a}, !- Default Day Schedule Name
  {6b8d94c9-646a-4132-96ae-0b197aaf6dee}; !- Summer Design Day Schedule Name

OS:Schedule:Day,
  {a4eed9e7-6544-4681-ab56-05d20c2ee50a}, !- Handle
  Medium Office Number of People All Other Days Schedule, !- Name
  {7bbdb3e9-cb9d-4468-8520-0c127a61dc48}, !- Schedule Type Limits Name
  ,                                       !- Interpolate to Timestep
  24,                                     !- Hour 1
  0,                                      !- Minute 1
  0;                                      !- Value Until Time 1

OS:Schedule:Day,
  {4e95d6ae-7282-40c8-b81e-b3aa538e2b34}, !- Handle
  Medium Office Number of People Summer Design Day Schedule, !- Name
  ,                                       !- Schedule Type Limits Name
  ,                                       !- Interpolate to Timestep
  6,                                      !- Hour 1
  0,                                      !- Minute 1
  0,                                      !- Value Until Time 1
  22,                                     !- Hour 2
  0,                                      !- Minute 2
  1,                                      !- Value Until Time 2
  24,                                     !- Hour 3
  0,                                      !- Minute 3
  0.05;                                   !- Value Until Time 3

OS:Schedule:Day,
  {6b8d94c9-646a-4132-96ae-0b197aaf6dee}, !- Handle
  Medium Office Number of People Summer Design Day Schedule 1, !- Name
  {7bbdb3e9-cb9d-4468-8520-0c127a61dc48}, !- Schedule Type Limits Name
  ,                                       !- Interpolate to Timestep
  6,                                      !- Hour 1
  0,                                      !- Minute 1
  0,                                      !- Value Until Time 1
  22,                                     !- Hour 2
  0,                                      !- Minute 2
  1,                                      !- Value Until Time 2
  24,                                     !- Hour 3
  0,                                      !- Minute 3
  0.05;                                   !- Value Until Time 3

OS:Schedule:Rule,
  {5a674e67-dfe9-4cd4-973c-d01446f6522e}, !- Handle
  Medium Office Number of People Schedule Weekdays Rule, !- Name
  {8b39fe89-8c95-4f7f-abdf-944070d4d84c}, !- Schedule Ruleset Name
  1,                                      !- Rule Order
  {c56298fb-46c9-4373-b80d-a3f4cefc5dfc}, !- Day Schedule Name
  ,                                       !- Apply Sunday
  Yes,                                    !- Apply Monday
  Yes,                                    !- Apply Tuesday
  Yes,                                    !- Apply Wednesday
  Yes,                                    !- Apply Thursday
  Yes;                                    !- Apply Friday

OS:Schedule:Day,
  {c56298fb-46c9-4373-b80d-a3f4cefc5dfc}, !- Handle
  Medium Office Number of People Weekdays Schedule, !- Name
  {7bbdb3e9-cb9d-4468-8520-0c127a61dc48}, !- Schedule Type Limits Name
  ,                                       !- Interpolate to Timestep
  6,                                      !- Hour 1
  0,                                      !- Minute 1
  0,                                      !- Value Until Time 1
  7,                                      !- Hour 2
  0,                                      !- Minute 2
  0.1,                                    !- Value Until Time 2
  8,                                      !- Hour 3
  0,                                      !- Minute 3
  0.2,                                    !- Value Until Time 3
  12,                                     !- Hour 4
  0,                                      !- Minute 4
  0.95,                                   !- Value Until Time 4
  13,                                     !- Hour 5
  0,                                      !- Minute 5
  0.5,                                    !- Value Until Time 5
  17,                                     !- Hour 6
  0,                                      !- Minute 6
  0.95,                                   !- Value Until Time 6
  18,                                     !- Hour 7
  0,                                      !- Minute 7
  0.7,                                    !- Value Until Time 7
  20,                                     !- Hour 8
  0,                                      !- Minute 8
  0.4,                                    !- Value Until Time 8
  22,                                     !- Hour 9
  0,                                      !- Minute 9
  0.1,                                    !- Value Until Time 9
  24,                                     !- Hour 10
  0,                                      !- Minute 10
  0.05;                                   !- Value Until Time 10

OS:Schedule:Rule,
  {59d0deac-a6b8-4c83-b075-fa8c047bb4c9}, !- Handle
  Medium Office Number of People Schedule Saturday Rule, !- Name
  {8b39fe89-8c95-4f7f-abdf-944070d4d84c}, !- Schedule Ruleset Name
  0,                                      !- Rule Order
  {ab8af425-2741-415a-bf48-cf4989937c72}, !- Day Schedule Name
  ,                                       !- Apply Sunday
  ,                                       !- Apply Monday
  ,                                       !- Apply Tuesday
  ,                                       !- Apply Wednesday
  ,                                       !- Apply Thursday
  ,                                       !- Apply Friday
  Yes;                                    !- Apply Saturday

OS:Schedule:Day,
  {ab8af425-2741-415a-bf48-cf4989937c72}, !- Handle
  Medium Office Number of People Saturday Schedule, !- Name
  {7bbdb3e9-cb9d-4468-8520-0c127a61dc48}, !- Schedule Type Limits Name
  ,                                       !- Interpolate to Timestep
  6,                                      !- Hour 1
  0,                                      !- Minute 1
  0,                                      !- Value Until Time 1
  8,                                      !- Hour 2
  0,                                      !- Minute 2
  0.1,                                    !- Value Until Time 2
  14,                                     !- Hour 3
  0,                                      !- Minute 3
  0.5,                                    !- Value Until Time 3
  17,                                     !- Hour 4
  0,                                      !- Minute 4
  0.1,                                    !- Value Until Time 4
  24,                                     !- Hour 5
  0,                                      !- Minute 5
  0;                                      !- Value Until Time 5

OS:ScheduleTypeLimits,
  {7bbdb3e9-cb9d-4468-8520-0c127a61dc48}, !- Handle
  Fractional,                             !- Name
  0,                                      !- Lower Limit Value
  1,                                      !- Upper Limit Value
  Continuous;                             !- Numeric Type

OS:Schedule:Ruleset,
  {aff4bf83-e5c2-4f31-a37c-5b870d68cd04}, !- Handle
  Medium Office People Activity Level Schedule, !- Name
  {4753c73b-fadc-41de-84de-2f668578698c}, !- Schedule Type Limits Name
  {24ed8ad5-9e1e-4225-aeff-41f6d45c01e7}; !- Default Day Schedule Name

OS:Schedule:Day,
  {24ed8ad5-9e1e-4225-aeff-41f6d45c01e7}, !- Handle
  Medium Office People Activity Level All Days Schedule, !- Name
  {4753c73b-fadc-41de-84de-2f668578698c}, !- Schedule Type Limits Name
  ,                                       !- Interpolate to Timestep
  24,                                     !- Hour 1
  0,                                      !- Minute 1
  120;                                    !- Value Until Time 1

OS:ScheduleTypeLimits,
  {4753c73b-fadc-41de-84de-2f668578698c}, !- Handle
  ActivityLevel,                          !- Name
  0,                                      !- Lower Limit Value
  ,                                       !- Upper Limit Value
  Continuous,                             !- Numeric Type
  ActivityLevel;                          !- Unit Type

OS:Schedule:Ruleset,
  {d95d95b3-4e50-45f6-9db4-b9f897815e4e}, !- Handle
  Medium Office Lighting Schedule,        !- Name
  {7bbdb3e9-cb9d-4468-8520-0c127a61dc48}, !- Schedule Type Limits Name
  {8bf4481c-95c1-44ab-b4ea-9293bc65820c}, !- Default Day Schedule Name
  {b645ba76-0126-45df-ae5e-845a5304e89f}, !- Summer Design Day Schedule Name
  {fa8bf380-51a4-478c-a8a4-421a5d73b39a}; !- Winter Design Day Schedule Name

OS:Schedule:Day,
  {8bf4481c-95c1-44ab-b4ea-9293bc65820c}, !- Handle
  Medium Office Lighting All Other Days Schedule, !- Name
  {7bbdb3e9-cb9d-4468-8520-0c127a61dc48}, !- Schedule Type Limits Name
  ,                                       !- Interpolate to Timestep
  24,                                     !- Hour 1
  0,                                      !- Minute 1
  0.05;                                   !- Value Until Time 1

OS:Schedule:Day,
  {ac5378a4-a74b-4932-9bc3-246c14e52a1a}, !- Handle
  Medium Office Lighting Summer Design Day Schedule, !- Name
  ,                                       !- Schedule Type Limits Name
  ,                                       !- Interpolate to Timestep
  6,                                      !- Hour 1
  0,                                      !- Minute 1
  1,                                      !- Value Until Time 1
  24,                                     !- Hour 2
  0,                                      !- Minute 2
  0;                                      !- Value Until Time 2

OS:Schedule:Day,
  {b645ba76-0126-45df-ae5e-845a5304e89f}, !- Handle
  Medium Office Lighting Summer Design Day Schedule 1, !- Name
  {7bbdb3e9-cb9d-4468-8520-0c127a61dc48}, !- Schedule Type Limits Name
  ,                                       !- Interpolate to Timestep
  6,                                      !- Hour 1
  0,                                      !- Minute 1
  1,                                      !- Value Until Time 1
  24,                                     !- Hour 2
  0,                                      !- Minute 2
  0;                                      !- Value Until Time 2

OS:Schedule:Day,
  {14f9de19-c43b-424f-a0cf-d12a284cb778}, !- Handle
  Medium Office Lighting Winter Design Day Schedule, !- Name
  ,                                       !- Schedule Type Limits Name
  ,                                       !- Interpolate to Timestep
  24,                                     !- Hour 1
  0,                                      !- Minute 1
  0;                                      !- Value Until Time 1

OS:Schedule:Day,
  {fa8bf380-51a4-478c-a8a4-421a5d73b39a}, !- Handle
  Medium Office Lighting Winter Design Day Schedule 1, !- Name
  {7bbdb3e9-cb9d-4468-8520-0c127a61dc48}, !- Schedule Type Limits Name
  ,                                       !- Interpolate to Timestep
  24,                                     !- Hour 1
  0,                                      !- Minute 1
  0;                                      !- Value Until Time 1

OS:Schedule:Rule,
  {ed102e8b-3cae-4741-8a5e-6a1e37d69f84}, !- Handle
  Medium Office Lighting Schedule Weekdays Rule, !- Name
  {d95d95b3-4e50-45f6-9db4-b9f897815e4e}, !- Schedule Ruleset Name
  1,                                      !- Rule Order
  {99d4f44b-45c9-4793-bc2f-195a88b2ebf5}, !- Day Schedule Name
  ,                                       !- Apply Sunday
  Yes,                                    !- Apply Monday
  Yes,                                    !- Apply Tuesday
  Yes,                                    !- Apply Wednesday
  Yes,                                    !- Apply Thursday
  Yes;                                    !- Apply Friday

OS:Schedule:Day,
  {99d4f44b-45c9-4793-bc2f-195a88b2ebf5}, !- Handle
  Medium Office Lighting Weekdays Schedule, !- Name
  {7bbdb3e9-cb9d-4468-8520-0c127a61dc48}, !- Schedule Type Limits Name
  ,                                       !- Interpolate to Timestep
  5,                                      !- Hour 1
  0,                                      !- Minute 1
  0.05,                                   !- Value Until Time 1
  7,                                      !- Hour 2
  0,                                      !- Minute 2
  0.1,                                    !- Value Until Time 2
  8,                                      !- Hour 3
  0,                                      !- Minute 3
  0.3,                                    !- Value Until Time 3
  17,                                     !- Hour 4
  0,                                      !- Minute 4
  0.9,                                    !- Value Until Time 4
  18,                                     !- Hour 5
  0,                                      !- Minute 5
  0.7,                                    !- Value Until Time 5
  20,                                     !- Hour 6
  0,                                      !- Minute 6
  0.5,                                    !- Value Until Time 6
  22,                                     !- Hour 7
  0,                                      !- Minute 7
  0.3,                                    !- Value Until Time 7
  23,                                     !- Hour 8
  0,                                      !- Minute 8
  0.1,                                    !- Value Until Time 8
  24,                                     !- Hour 9
  0,                                      !- Minute 9
  0.05;                                   !- Value Until Time 9

OS:Schedule:Rule,
  {5b2a7075-d16f-4f54-a1af-bf6d3cfbd0aa}, !- Handle
  Medium Office Lighting Schedule Saturday Rule, !- Name
  {d95d95b3-4e50-45f6-9db4-b9f897815e4e}, !- Schedule Ruleset Name
  0,                                      !- Rule Order
  {2e2717b3-8f11-4cb2-ab97-c1fd1920e610}, !- Day Schedule Name
  ,                                       !- Apply Sunday
  ,                                       !- Apply Monday
  ,                                       !- Apply Tuesday
  ,                                       !- Apply Wednesday
  ,                                       !- Apply Thursday
  ,                                       !- Apply Friday
  Yes;                                    !- Apply Saturday

OS:Schedule:Day,
  {2e2717b3-8f11-4cb2-ab97-c1fd1920e610}, !- Handle
  Medium Office Lighting Saturday Schedule, !- Name
  {7bbdb3e9-cb9d-4468-8520-0c127a61dc48}, !- Schedule Type Limits Name
  ,                                       !- Interpolate to Timestep
  6,                                      !- Hour 1
  0,                                      !- Minute 1
  0.05,                                   !- Value Until Time 1
  8,                                      !- Hour 2
  0,                                      !- Minute 2
  0.1,                                    !- Value Until Time 2
  14,                                     !- Hour 3
  0,                                      !- Minute 3
  0.5,                                    !- Value Until Time 3
  17,                                     !- Hour 4
  0,                                      !- Minute 4
  0.15,                                   !- Value Until Time 4
  24,                                     !- Hour 5
  0,                                      !- Minute 5
  0.05;                                   !- Value Until Time 5

OS:Schedule:Ruleset,
  {1c80d324-de2c-4a63-9dc9-54176e405337}, !- Handle
  Medium Office Electric Equipment Schedule, !- Name
  {7bbdb3e9-cb9d-4468-8520-0c127a61dc48}, !- Schedule Type Limits Name
  {86ca2394-2a30-4c39-813a-15dff4ea8656}, !- Default Day Schedule Name
  {d7ea60ac-5087-4216-8936-9cbf5f44fb52}, !- Summer Design Day Schedule Name
  {781a72f3-e27d-4f81-a3c8-e96999427dda}; !- Winter Design Day Schedule Name

OS:Schedule:Day,
  {86ca2394-2a30-4c39-813a-15dff4ea8656}, !- Handle
  Medium Office Electric Equipment All Other Days Schedule, !- Name
  {7bbdb3e9-cb9d-4468-8520-0c127a61dc48}, !- Schedule Type Limits Name
  ,                                       !- Interpolate to Timestep
  24,                                     !- Hour 1
  0,                                      !- Minute 1
  0.3;                                    !- Value Until Time 1

OS:Schedule:Day,
  {d309dccb-df8a-4c21-8847-07bd33f6204f}, !- Handle
  Medium Office Electric Equipment Summer Design Day Schedule, !- Name
  ,                                       !- Schedule Type Limits Name
  ,                                       !- Interpolate to Timestep
  6,                                      !- Hour 1
  0,                                      !- Minute 1
  1,                                      !- Value Until Time 1
  24,                                     !- Hour 2
  0,                                      !- Minute 2
  0;                                      !- Value Until Time 2

OS:Schedule:Day,
  {d7ea60ac-5087-4216-8936-9cbf5f44fb52}, !- Handle
  Medium Office Electric Equipment Summer Design Day Schedule 1, !- Name
  {7bbdb3e9-cb9d-4468-8520-0c127a61dc48}, !- Schedule Type Limits Name
  ,                                       !- Interpolate to Timestep
  6,                                      !- Hour 1
  0,                                      !- Minute 1
  1,                                      !- Value Until Time 1
  24,                                     !- Hour 2
  0,                                      !- Minute 2
  0;                                      !- Value Until Time 2

OS:Schedule:Day,
  {d4409530-fb0d-41b6-8b3f-04325f173aa3}, !- Handle
  Medium Office Electric Equipment Winter Design Day Schedule, !- Name
  ,                                       !- Schedule Type Limits Name
  ,                                       !- Interpolate to Timestep
  24,                                     !- Hour 1
  0,                                      !- Minute 1
  0;                                      !- Value Until Time 1

OS:Schedule:Day,
  {781a72f3-e27d-4f81-a3c8-e96999427dda}, !- Handle
  Medium Office Electric Equipment Winter Design Day Schedule 1, !- Name
  {7bbdb3e9-cb9d-4468-8520-0c127a61dc48}, !- Schedule Type Limits Name
  ,                                       !- Interpolate to Timestep
  24,                                     !- Hour 1
  0,                                      !- Minute 1
  0;                                      !- Value Until Time 1

OS:Schedule:Rule,
  {f582a7b8-e018-442b-b40d-38a34215a9a1}, !- Handle
  Medium Office Electric Equipment Schedule Weekdays Rule, !- Name
  {1c80d324-de2c-4a63-9dc9-54176e405337}, !- Schedule Ruleset Name
  1,                                      !- Rule Order
  {1420d4d0-c747-4d42-8221-eafc388d407b}, !- Day Schedule Name
  ,                                       !- Apply Sunday
  Yes,                                    !- Apply Monday
  Yes,                                    !- Apply Tuesday
  Yes,                                    !- Apply Wednesday
  Yes,                                    !- Apply Thursday
  Yes;                                    !- Apply Friday

OS:Schedule:Day,
  {1420d4d0-c747-4d42-8221-eafc388d407b}, !- Handle
  Medium Office Electric Equipment Weekdays Schedule, !- Name
  {7bbdb3e9-cb9d-4468-8520-0c127a61dc48}, !- Schedule Type Limits Name
  ,                                       !- Interpolate to Timestep
  8,                                      !- Hour 1
  0,                                      !- Minute 1
  0.4,                                    !- Value Until Time 1
  12,                                     !- Hour 2
  0,                                      !- Minute 2
  0.9,                                    !- Value Until Time 2
  13,                                     !- Hour 3
  0,                                      !- Minute 3
  0.8,                                    !- Value Until Time 3
  17,                                     !- Hour 4
  0,                                      !- Minute 4
  0.9,                                    !- Value Until Time 4
  18,                                     !- Hour 5
  0,                                      !- Minute 5
  0.8,                                    !- Value Until Time 5
  20,                                     !- Hour 6