
OS:Version,
  {b711d10d-d360-469c-8d74-7b7f2f8c23b8}, !- Handle
  1.0.1;                                  !- Version Identifier

OS:SimulationControl,
  {d2efa8e7-7712-4120-a9db-54d078a62cf6}, !- Handle
  Yes,                                    !- Do Zone Sizing Calculation
  Yes,                                    !- Do System Sizing Calculation
  ,                                       !- Do Plant Sizing Calculation
  No,                                     !- Run Simulation for Sizing Periods
  Yes;                                    !- Run Simulation for Weather File Run Periods

OS:Timestep,
  {8659da03-20a7-4596-86aa-1e0da8b9b2ae}, !- Handle
  6;                                      !- Number of Timesteps per Hour

OS:RunPeriod,
  {d75491ca-6be6-4524-ab9a-e77336481288}, !- Handle
  Run Period 1,                           !- Name
  1,                                      !- Begin Month
  1,                                      !- Begin Day of Month
  12,                                     !- End Month
  31,                                     !- End Day of Month
  No,                                     !- Use Weather File Holidays and Special Days
  No,                                     !- Use Weather File Daylight Saving Period
  No,                                     !- Apply Weekend Holiday Rule
  Yes,                                    !- Use Weather File Rain Indicators
  Yes,                                    !- Use Weather File Snow Indicators
  1;                                      !- Number of Times Runperiod to be Repeated

OS:SurfaceConvectionAlgorithm:Inside,
  {5ff196f8-fdef-4267-a068-497694bd0059}, !- Handle
  TARP;                                   !- Algorithm

OS:SurfaceConvectionAlgorithm:Outside,
  {4b6d8cdf-8190-428c-ad55-62624a6dfb7e}, !- Handle
  DOE-2;                                  !- Algorithm

OS:HeatBalanceAlgorithm,
  {90dede65-3f30-4e03-9959-395285bfca2f}, !- Handle
  ConductionTransferFunction,             !- Algorithm
  200;                                    !- Surface Temperature Upper Limit {F}

OS:ZoneAirHeatBalanceAlgorithm,
  {88f1f239-7885-4760-95e5-936fb41da000}, !- Handle
  AnalyticalSolution;                     !- Algorithm

OS:ConvergenceLimits,
  {5a6739ff-92e0-4962-ad33-e932e6c243fd}; !- Handle

OS:ShadowCalculation,
  {5d5b7c12-63d7-4363-9c3c-4a76f8019ad0}, !- Handle
  7,                                      !- Calculation Frequency
  15000;                                  !- Maximum Figures in Shadow Overlap Calculations

OS:Site,
  {91179828-2c89-41ec-8be7-7702e8d89a66}, !- Handle
  Site 1,                                 !- Name
  41.77,                                  !- Latitude {deg}
  -87.75,                                 !- Longitude {deg}
  -6,                                     !- Time Zone {hr}
  190,                                    !- Elevation {m}
  ;                                       !- Terrain

OS:Site:GroundTemperature:BuildingSurface,
  {8c0e0c7a-d7b1-4b18-8d75-fd2a83918876}, !- Handle
  19.527,                                 !- January Ground Temperature {C}
  19.502,                                 !- February Ground Temperature {C}
  19.536,                                 !- March Ground Temperature {C}
  19.598,                                 !- April Ground Temperature {C}
  20.002,                                 !- May Ground Temperature {C}
  21.64,                                  !- June Ground Temperature {C}
  22.225,                                 !- July Ground Temperature {C}
  22.375,                                 !- August Ground Temperature {C}
  21.449,                                 !- September Ground Temperature {C}
  20.121,                                 !- October Ground Temperature {C}
  19.802,                                 !- November Ground Temperature {C}
  19.633;                                 !- December Ground Temperature {C}

OS:Site:WaterMainsTemperature,
  {061abbd0-cb16-49f2-ad13-9f457839a9e8}, !- Handle
  Correlation,                            !- Calculation Method
  ,                                       !- Temperature Schedule Name
  9.69,                                   !- Annual Average Outdoor Air Temperature {C}
  28.1;                                   !- Maximum Difference In Monthly Average Outdoor Air Temperatures {deltaC}

OS:SizingPeriod:DesignDay,
  {3a8ab5b0-f845-4730-b56c-a80e91dc3516}, !- Handle
  Sizing Period Design Day 1,             !- Name
  -20.6,                                  !- Maximum Dry-Bulb Temperature {C}
  0,                                      !- Daily Dry-Bulb Temperature Range {deltaC}
  -20.6,                                  !- Humidity Indicating Conditions at Maximum Dry-Bulb {BasedOnField A3}
  99063,                                  !- Barometric Pressure {Pa}
  4.9,                                    !- Wind Speed {m/s}
  270,                                    !- Wind Direction {deg}
  0,                                      !- Sky Clearness
  0,                                      !- Rain Indicator
  0,                                      !- Snow Indicator
  21,                                     !- Day of Month
  1,                                      !- Month
  WinterDesignDay,                        !- Day Type
  0,                                      !- Daylight Saving Time Indicator
  WetBulb,                                !- Humidity Indicating Type
  ,                                       !- Humidity Indicating Day Schedule Name
  DefaultMultipliers,                     !- Dry-Bulb Temperature Range Modifier Type
  ,                                       !- Dry-Bulb Temperature Range Modifier Schedule Name
  AshraeClearSky;                         !- Solar Model Indicator

OS:SizingPeriod:DesignDay,
  {f9dd39d6-f62d-4ae2-9085-bd6aef9596bc}, !- Handle
  Sizing Period Design Day 2,             !- Name
  33.2,                                   !- Maximum Dry-Bulb Temperature {C}
  10.7,                                   !- Daily Dry-Bulb Temperature Range {deltaC}
  23.8,                                   !- Humidity Indicating Conditions at Maximum Dry-Bulb {BasedOnField A3}
  99063,                                  !- Barometric Pressure {Pa}
  5.3,                                    !- Wind Speed {m/s}
  230,                                    !- Wind Direction {deg}
  1,                                      !- Sky Clearness
  0,                                      !- Rain Indicator
  0,                                      !- Snow Indicator
  21,                                     !- Day of Month
  7,                                      !- Month
  SummerDesignDay,                        !- Day Type
  0,                                      !- Daylight Saving Time Indicator
  WetBulb,                                !- Humidity Indicating Type
  ,                                       !- Humidity Indicating Day Schedule Name
  DefaultMultipliers,                     !- Dry-Bulb Temperature Range Modifier Type
  ,                                       !- Dry-Bulb Temperature Range Modifier Schedule Name
  AshraeClearSky;                         !- Solar Model Indicator

OS:ScheduleTypeLimits,
  {77a8e6fe-afa6-4454-b1d7-db13a9e0b36e}, !- Handle
  Temperature,                            !- Name
  -60,                                    !- Lower Limit Value {BasedOnField A4}
  200,                                    !- Upper Limit Value {BasedOnField A4}
  CONTINUOUS,                             !- Numeric Type
  Temperature;                            !- Unit Type

OS:DefaultScheduleSet,
  {fc117da7-6d72-4a7c-860b-17ecebde34d6}, !- Handle
  Default Schedules,                      !- Name
  ,                                       !- Hours of Operation Schedule Name
  {015a3c1c-608c-40a2-8131-61a749cc6f14}, !- Number of People Schedule Name
  {bcba5194-691b-4c8c-9078-a8ee1e6a7233}, !- People Activity Level Schedule Name
  {7cd244d0-f060-4fa8-9987-f250cdc09451}, !- Lighting Schedule Name
  {f2628676-d3a5-4776-9b19-7257a5333958}, !- Electric Equipment Schedule Name
  {d2ec823a-2b36-46e0-9bc5-2e16c49af0fa}, !- Gas Equipment Schedule Name
  {1dc261a6-c069-4f5c-b606-e68346f5d712}, !- Hot Water Equipment Schedule Name
  {7dfb9252-a851-4a68-b6cb-67c414c77901}, !- Infiltration Schedule Name
  ,                                       !- Steam Equipment Schedule Name
  ;                                       !- Other Equipment Schedule Name

OS:Schedule:Ruleset,
  {015a3c1c-608c-40a2-8131-61a749cc6f14}, !- Handle
  Medium Office Number of People Schedule, !- Name
  {594d1dc9-5aa9-4a12-bd2b-c0e9f2f79b5b}, !- Schedule Type Limits Name
  {abb22640-8428-4653-97b1-d66879863656}, !- Default Day Schedule Name
  {7da2c4a8-7a21-424d-9333-092d8eef374c}; !- Summer Design Day Schedule Name

OS:Schedule:Day,
  {abb22640-8428-4653-97b1-d66879863656}, !- Handle
  Medium Office Number of People All Other Days Schedule, !- Name
  {594d1dc9-5aa9-4a12-bd2b-c0e9f2f79b5b}, !- Schedule Type Limits Name
  ,                                       !- Interpolate to Timestep
  24,                                     !- Hour 1
  0,                                      !- Minute 1
  0;                                      !- Value Until Time 1

OS:Schedule:Day,
  {f2293dc7-1b3f-4764-a0a7-70df58604626}, !- Handle
  Medium Office Number of People Summer Design Day Schedule, !- Name
  ,                                       !- Schedule Type Limits Name
  ,                                       !- Interpolate to Timestep
  6,                                      !- Hour 1
  0,                                      !- Minute 1
  0,                                      !- Value Until Time 1
  22,                                     !- Hour 2
  0,                                      !- Minute 2
  1,                                      !- Value Until Time 2
  24,                                     !- Hour 3
  0,                                      !- Minute 3
  0.05;                                   !- Value Until Time 3

OS:Schedule:Day,
  {7da2c4a8-7a21-424d-9333-092d8eef374c}, !- Handle
  Medium Office Number of People Summer Design Day Schedule 1, !- Name
  {594d1dc9-5aa9-4a12-bd2b-c0e9f2f79b5b}, !- Schedule Type Limits Name
  ,                                       !- Interpolate to Timestep
  6,                                      !- Hour 1
  0,                                      !- Minute 1
  0,                                      !- Value Until Time 1
  22,                                     !- Hour 2
  0,                                      !- Minute 2
  1,                                      !- Value Until Time 2
  24,                                     !- Hour 3
  0,                                      !- Minute 3
  0.05;                                   !- Value Until Time 3

OS:Schedule:Rule,
  {23435e26-77a4-4632-a0d7-dc74918c041f}, !- Handle
  Medium Office Number of People Schedule Weekdays Rule, !- Name
  {015a3c1c-608c-40a2-8131-61a749cc6f14}, !- Schedule Ruleset Name
  1,                                      !- Rule Order
  {afa15173-6e85-4aed-b626-624f64737d8f}, !- Day Schedule Name
  ,                                       !- Apply Sunday
  Yes,                                    !- Apply Monday
  Yes,                                    !- Apply Tuesday
  Yes,                                    !- Apply Wednesday
  Yes,                                    !- Apply Thursday
  Yes;                                    !- Apply Friday

OS:Schedule:Day,
  {afa15173-6e85-4aed-b626-624f64737d8f}, !- Handle
  Medium Office Number of People Weekdays Schedule, !- Name
  {594d1dc9-5aa9-4a12-bd2b-c0e9f2f79b5b}, !- Schedule Type Limits Name
  ,                                       !- Interpolate to Timestep
  6,                                      !- Hour 1
  0,                                      !- Minute 1
  0,                                      !- Value Until Time 1
  7,                                      !- Hour 2
  0,                                      !- Minute 2
  0.1,                                    !- Value Until Time 2
  8,                                      !- Hour 3
  0,                                      !- Minute 3
  0.2,                                    !- Value Until Time 3
  12,                                     !- Hour 4
  0,                                      !- Minute 4
  0.95,                                   !- Value Until Time 4
  13,                                     !- Hour 5
  0,                                      !- Minute 5
  0.5,                                    !- Value Until Time 5
  17,                                     !- Hour 6
  0,                                      !- Minute 6
  0.95,                                   !- Value Until Time 6
  18,                                     !- Hour 7
  0,                                      !- Minute 7
  0.7,                                    !- Value Until Time 7
  20,                                     !- Hour 8
  0,                                      !- Minute 8
  0.4,                                    !- Value Until Time 8
  22,                                     !- Hour 9
  0,                                      !- Minute 9
  0.1,                                    !- Value Until Time 9
  24,                                     !- Hour 10
  0,                                      !- Minute 10
  0.05;                                   !- Value Until Time 10

OS:Schedule:Rule,
  {d9a37378-e13a-4eec-ba0c-ed7af44e54df}, !- Handle
  Medium Office Number of People Schedule Saturday Rule, !- Name
  {015a3c1c-608c-40a2-8131-61a749cc6f14}, !- Schedule Ruleset Name
  0,                                      !- Rule Order
  {7b1ab2a3-252c-49f8-8478-fd662c53cf57}, !- Day Schedule Name
  ,                                       !- Apply Sunday
  ,                                       !- Apply Monday
  ,                                       !- Apply Tuesday
  ,                                       !- Apply Wednesday
  ,                                       !- Apply Thursday
  ,                                       !- Apply Friday
  Yes;                                    !- Apply Saturday

OS:Schedule:Day,
  {7b1ab2a3-252c-49f8-8478-fd662c53cf57}, !- Handle
  Medium Office Number of People Saturday Schedule, !- Name
  {594d1dc9-5aa9-4a12-bd2b-c0e9f2f79b5b}, !- Schedule Type Limits Name
  ,                                       !- Interpolate to Timestep
  6,                                      !- Hour 1
  0,                                      !- Minute 1
  0,                                      !- Value Until Time 1
  8,                                      !- Hour 2
  0,                                      !- Minute 2
  0.1,                                    !- Value Until Time 2
  14,                                     !- Hour 3
  0,                                      !- Minute 3
  0.5,                                    !- Value Until Time 3
  17,                                     !- Hour 4
  0,                                      !- Minute 4
  0.1,                                    !- Value Until Time 4
  24,                                     !- Hour 5
  0,                                      !- Minute 5
  0;                                      !- Value Until Time 5

OS:ScheduleTypeLimits,
  {594d1dc9-5aa9-4a12-bd2b-c0e9f2f79b5b}, !- Handle
  Fractional,                             !- Name
  0,                                      !- Lower Limit Value {BasedOnField A4}
  1,                                      !- Upper Limit Value {BasedOnField A4}
  Continuous;                             !- Numeric Type

OS:Schedule:Ruleset,
  {bcba5194-691b-4c8c-9078-a8ee1e6a7233}, !- Handle
  Medium Office People Activity Level Schedule, !- Name
  {987e4a7e-45d5-4399-8ebc-0c84177faab9}, !- Schedule Type Limits Name
  {0f29b243-6423-439a-8716-16a886838d1e}; !- Default Day Schedule Name

OS:Schedule:Day,
  {0f29b243-6423-439a-8716-16a886838d1e}, !- Handle
  Medium Office People Activity Level All Days Schedule, !- Name
  {987e4a7e-45d5-4399-8ebc-0c84177faab9}, !- Schedule Type Limits Name
  ,                                       !- Interpolate to Timestep
  24,                                     !- Hour 1
  0,                                      !- Minute 1
  120;                                    !- Value Until Time 1

OS:ScheduleTypeLimits,
  {987e4a7e-45d5-4399-8ebc-0c84177faab9}, !- Handle
  ActivityLevel,                          !- Name
  0,                                      !- Lower Limit Value {BasedOnField A4}
  ,                                       !- Upper Limit Value {BasedOnField A4}
  Continuous,                             !- Numeric Type
  ActivityLevel;                          !- Unit Type

OS:Schedule:Ruleset,
  {7cd244d0-f060-4fa8-9987-f250cdc09451}, !- Handle
  Medium Office Lighting Schedule,        !- Name
  {594d1dc9-5aa9-4a12-bd2b-c0e9f2f79b5b}, !- Schedule Type Limits Name
  {2b2beb76-d435-42a7-a2c5-17e0b622246f}, !- Default Day Schedule Name
  {c62922ce-cfcf-437d-833e-1626786c564f}, !- Summer Design Day Schedule Name
  {974094c4-1a0e-4d3a-8366-68f270ee45d5}; !- Winter Design Day Schedule Name

OS:Schedule:Day,
  {2b2beb76-d435-42a7-a2c5-17e0b622246f}, !- Handle
  Medium Office Lighting All Other Days Schedule, !- Name
  {594d1dc9-5aa9-4a12-bd2b-c0e9f2f79b5b}, !- Schedule Type Limits Name
  ,                                       !- Interpolate to Timestep
  24,                                     !- Hour 1
  0,                                      !- Minute 1
  0.05;                                   !- Value Until Time 1

OS:Schedule:Day,
  {92afd2c6-c1f8-4b5d-9d44-775d147ed269}, !- Handle
  Medium Office Lighting Summer Design Day Schedule, !- Name
  ,                                       !- Schedule Type Limits Name
  ,                                       !- Interpolate to Timestep
  6,                                      !- Hour 1
  0,                                      !- Minute 1
  1,                                      !- Value Until Time 1
  24,                                     !- Hour 2
  0,                                      !- Minute 2
  0;                                      !- Value Until Time 2

OS:Schedule:Day,
  {c62922ce-cfcf-437d-833e-1626786c564f}, !- Handle
  Medium Office Lighting Summer Design Day Schedule 1, !- Name
  {594d1dc9-5aa9-4a12-bd2b-c0e9f2f79b5b}, !- Schedule Type Limits Name
  ,                                       !- Interpolate to Timestep
  6,                                      !- Hour 1
  0,                                      !- Minute 1
  1,                                      !- Value Until Time 1
  24,                                     !- Hour 2
  0,                                      !- Minute 2
  0;                                      !- Value Until Time 2

OS:Schedule:Day,
  {b221450a-fc3c-437f-9167-0ee59316d02f}, !- Handle
  Medium Office Lighting Winter Design Day Schedule, !- Name
  ,                                       !- Schedule Type Limits Name
  ,                                       !- Interpolate to Timestep
  24,                                     !- Hour 1
  0,                                      !- Minute 1
  0;                                      !- Value Until Time 1

OS:Schedule:Day,
  {974094c4-1a0e-4d3a-8366-68f270ee45d5}, !- Handle
  Medium Office Lighting Winter Design Day Schedule 1, !- Name
  {594d1dc9-5aa9-4a12-bd2b-c0e9f2f79b5b}, !- Schedule Type Limits Name
  ,                                       !- Interpolate to Timestep
  24,                                     !- Hour 1
  0,                                      !- Minute 1
  0;                                      !- Value Until Time 1

OS:Schedule:Rule,
  {6c1659d5-f908-4cf1-bb8a-2fc0fb8c6762}, !- Handle
  Medium Office Lighting Schedule Weekdays Rule, !- Name
  {7cd244d0-f060-4fa8-9987-f250cdc09451}, !- Schedule Ruleset Name
  1,                                      !- Rule Order
  {6daf8b09-405e-4676-b69c-39b74b8a4eb6}, !- Day Schedule Name
  ,                                       !- Apply Sunday
  Yes,                                    !- Apply Monday
  Yes,                                    !- Apply Tuesday
  Yes,                                    !- Apply Wednesday
  Yes,                                    !- Apply Thursday
  Yes;                                    !- Apply Friday

OS:Schedule:Day,
  {6daf8b09-405e-4676-b69c-39b74b8a4eb6}, !- Handle
  Medium Office Lighting Weekdays Schedule, !- Name
  {594d1dc9-5aa9-4a12-bd2b-c0e9f2f79b5b}, !- Schedule Type Limits Name
  ,                                       !- Interpolate to Timestep
  5,                                      !- Hour 1
  0,                                      !- Minute 1
  0.05,                                   !- Value Until Time 1
  7,                                      !- Hour 2
  0,                                      !- Minute 2
  0.1,                                    !- Value Until Time 2
  8,                                      !- Hour 3
  0,                                      !- Minute 3
  0.3,                                    !- Value Until Time 3
  17,                                     !- Hour 4
  0,                                      !- Minute 4
  0.9,                                    !- Value Until Time 4
  18,                                     !- Hour 5
  0,                                      !- Minute 5
  0.7,                                    !- Value Until Time 5
  20,                                     !- Hour 6
  0,                                      !- Minute 6
  0.5,                                    !- Value Until Time 6
  22,                                     !- Hour 7
  0,                                      !- Minute 7
  0.3,                                    !- Value Until Time 7
  23,                                     !- Hour 8
  0,                                      !- Minute 8
  0.1,                                    !- Value Until Time 8
  24,                                     !- Hour 9
  0,                                      !- Minute 9
  0.05;                                   !- Value Until Time 9

OS:Schedule:Rule,
  {e7b74296-a045-412a-b138-51c5f4356b14}, !- Handle
  Medium Office Lighting Schedule Saturday Rule, !- Name
  {7cd244d0-f060-4fa8-9987-f250cdc09451}, !- Schedule Ruleset Name
  0,                                      !- Rule Order
  {5dcca1f7-2a2b-47f1-a47f-2bb92ac74d49}, !- Day Schedule Name
  ,                                       !- Apply Sunday
  ,                                       !- Apply Monday
  ,                                       !- Apply Tuesday
  ,                                       !- Apply Wednesday
  ,                                       !- Apply Thursday
  ,                                       !- Apply Friday
  Yes;                                    !- Apply Saturday

OS:Schedule:Day,
  {5dcca1f7-2a2b-47f1-a47f-2bb92ac74d49}, !- Handle
  Medium Office Lighting Saturday Schedule, !- Name
  {594d1dc9-5aa9-4a12-bd2b-c0e9f2f79b5b}, !- Schedule Type Limits Name
  ,                                       !- Interpolate to Timestep
  6,                                      !- Hour 1
  0,                                      !- Minute 1
  0.05,                                   !- Value Until Time 1
  8,                                      !- Hour 2
  0,                                      !- Minute 2
  0.1,                                    !- Value Until Time 2
  14,                                     !- Hour 3
  0,                                      !- Minute 3
  0.5,                                    !- Value Until Time 3
  17,                                     !- Hour 4
  0,                                      !- Minute 4
  0.15,                                   !- Value Until Time 4
  24,                                     !- Hour 5
  0,                                      !- Minute 5
  0.05;                                   !- Value Until Time 5

OS:Schedule:Ruleset,
  {f2628676-d3a5-4776-9b19-7257a5333958}, !- Handle
  Medium Office Electric Equipment Schedule, !- Name
  {594d1dc9-5aa9-4a12-bd2b-c0e9f2f79b5b}, !- Schedule Type Limits Name
  {e8c4252e-9866-4a80-b848-b3980cf5feb9}, !- Default Day Schedule Name
  {c9035489-ca24-4c3e-8d74-8b8356673b97}, !- Summer Design Day Schedule Name
  {56ac38c6-daf6-4f9a-a5d4-cf684f737606}; !- Winter Design Day Schedule Name

OS:Schedule:Day,
  {e8c4252e-9866-4a80-b848-b3980cf5feb9}, !- Handle
  Medium Office Electric Equipment All Other Days Schedule, !- Name
  {594d1dc9-5aa9-4a12-bd2b-c0e9f2f79b5b}, !- Schedule Type Limits Name
  ,                                       !- Interpolate to Timestep
  24,                                     !- Hour 1
  0,                                      !- Minute 1
  0.3;                                    !- Value Until Time 1

OS:Schedule:Day,
  {c30bc882-09be-4f82-b1dd-2866f5eb37ee}, !- Handle
  Medium Office Electric Equipment Summer Design Day Schedule, !- Name
  ,                                       !- Schedule Type Limits Name
  ,                                       !- Interpolate to Timestep
  6,                                      !- Hour 1
  0,                                      !- Minute 1
  1,                                      !- Value Until Time 1
  24,                                     !- Hour 2
  0,                                      !- Minute 2
  0;                                      !- Value Until Time 2

OS:Schedule:Day,
  {c9035489-ca24-4c3e-8d74-8b8356673b97}, !- Handle
  Medium Office Electric Equipment Summer Design Day Schedule 1, !- Name
  {594d1dc9-5aa9-4a12-bd2b-c0e9f2f79b5b}, !- Schedule Type Limits Name
  ,                                       !- Interpolate to Timestep
  6,                                      !- Hour 1
  0,                                      !- Minute 1
  1,                                      !- Value Until Time 1
  24,                                     !- Hour 2
  0,                                      !- Minute 2
  0;                                      !- Value Until Time 2

OS:Schedule:Day,
  {3e0bbe2d-e296-404b-a2a4-ce4b5d26aac9}, !- Handle
  Medium Office Electric Equipment Winter Design Day Schedule, !- Name
  ,                                       !- Schedule Type Limits Name
  ,                                       !- Interpolate to Timestep
  24,                                     !- Hour 1
  0,                                      !- Minute 1
  0;                                      !- Value Until Time 1

OS:Schedule:Day,
  {56ac38c6-daf6-4f9a-a5d4-cf684f737606}, !- Handle
  Medium Office Electric Equipment Winter Design Day Schedule 1, !- Name
  {594d1dc9-5aa9-4a12-bd2b-c0e9f2f79b5b}, !- Schedule Type Limits Name
  ,                                       !- Interpolate to Timestep
  24,                                     !- Hour 1
  0,                                      !- Minute 1
  0;                                      !- Value Until Time 1

OS:Schedule:Rule,
  {3dfefcf0-d409-4d45-850f-b0b6834beb2b}, !- Handle
  Medium Office Electric Equipment Schedule Weekdays Rule, !- Name
  {f2628676-d3a5-4776-9b19-7257a5333958}, !- Schedule Ruleset Name
  1,                                      !- Rule Order
  {67c3bc70-c361-42f8-8235-5217ba33149e}, !- Day Schedule Name
  ,                                       !- Apply Sunday
  Yes,                                    !- Apply Monday
  Yes,                                    !- Apply Tuesday
  Yes,                                    !- Apply Wednesday
  Yes,                                    !- Apply Thursday
  Yes;                                    !- Apply Friday

OS:Schedule:Day,
  {67c3bc70-c361-42f8-8235-5217ba33149e}, !- Handle
  Medium Office Electric Equipment Weekdays Schedule, !- Name
  {594d1dc9-5aa9-4a12-bd2b-c0e9f2f79b5b}, !- Schedule Type Limits Name
  ,                                       !- Interpolate to Timestep
  8,                                      !- Hour 1
  0,                                      !- Minute 1
  0.4,                                    !- Value Until Time 1
  12,                                     !- Hour 2
  0,                                      !- Minute 2
  0.9,                                    !- Value Until Time 2
  13,                                     !- Hour 3
  0,                                      !- Minute 3
  0.8,                                    !- Value Until Time 3
  17,                                     !- Hour 4
  0,                                      !- Minute 4
  0.9,                                    !- Value Until Time 4
  18,                                     !- Hour 5
  0,                                      !- Minute 5
  0.8,                                    !- Value Until Time 5
  20,                                     !- Hour 6
  0,                                      !- Minute 6
  0.6,                                    !- Value Until Time 6
  22,                                     !- Hour 7
  0,                                      !- Minute 7
  0.5,                                    !- Value Until Time 7
  24,                                     !- Hour 8
  0,                                      !- Minute 8
  0.4;                                    !- Value Until Time 8

OS:Schedule:Rule,
  {8f15b2f2-e0c9-4600-b879-a718a2afcde8}, !- Handle
  Medium Office Electric Equipment Schedule Saturday Rule, !- Name
  {f2628676-d3a5-4776-9b19-7257a5333958}, !- Schedule Ruleset Name
  0,                                      !- Rule Order
  {3e3e1da7-5309-4b00-a3a7-6710da85937e}, !- Day Schedule Name
  ,                                       !- Apply Sunday
  ,                                       !- Apply Monday
  ,                                       !- Apply Tuesday
  ,                                       !- Apply Wednesday