
OS:Version,
  {060444a7-e19c-4213-8500-dc19bc99a68e}, !- Handle
  0.11.4;                                 !- Version Identifier

OS:SimulationControl,
  {e57f01bf-380f-428e-b8fd-3496b1022e42}, !- Handle
  Yes,                                    !- Do Zone Sizing Calculation
  Yes,                                    !- Do System Sizing Calculation
  ,                                       !- Do Plant Sizing Calculation
  No,                                     !- Run Simulation for Sizing Periods
  Yes;                                    !- Run Simulation for Weather File Run Periods

OS:Timestep,
  {ff672fe4-810a-4af8-ae74-b4e6fb23e9dd}, !- Handle
  6;                                      !- Number of Timesteps per Hour

OS:RunPeriod,
  {e546f89e-5065-4b44-9c71-05ba780e2af8}, !- Handle
  Run Period 1,                           !- Name
  1,                                      !- Begin Month
  1,                                      !- Begin Day of Month
  12,                                     !- End Month
  31,                                     !- End Day of Month
  No,                                     !- Use Weather File Holidays and Special Days
  No,                                     !- Use Weather File Daylight Saving Period
  No,                                     !- Apply Weekend Holiday Rule
  Yes,                                    !- Use Weather File Rain Indicators
  Yes,                                    !- Use Weather File Snow Indicators
  1;                                      !- Number of Times Runperiod to be Repeated

OS:SurfaceConvectionAlgorithm:Inside,
  {e8784da7-feda-41d8-899a-045b9ed79557}, !- Handle
  TARP;                                   !- Algorithm

OS:SurfaceConvectionAlgorithm:Outside,
  {19582584-b8ab-4819-9e17-2485d2d657ac}, !- Handle
  DOE-2;                                  !- Algorithm

OS:HeatBalanceAlgorithm,
  {a037796d-1bdb-4dd6-8afe-4b3b29de54e4}, !- Handle
  ConductionTransferFunction,             !- Algorithm
  200;                                    !- Surface Temperature Upper Limit {F}

OS:ZoneAirHeatBalanceAlgorithm,
  {2fd17ffb-21bc-4b8d-b638-fefc907d30bb}, !- Handle
  AnalyticalSolution;                     !- Algorithm

OS:ConvergenceLimits,
  {cb40e6c5-9943-45c7-af96-8c87bc1fea89}; !- Handle

OS:ShadowCalculation,
  {6de5594c-f16d-4214-ba7b-3939f3af19a5}, !- Handle
  7,                                      !- Calculation Frequency
  15000;                                  !- Maximum Figures in Shadow Overlap Calculations

OS:Site,
  {0daac4b4-46f3-4b5a-b9e1-5d4b4c2222f1}, !- Handle
  Site 1,                                 !- Name
  41.77,                                  !- Latitude {deg}
  -87.75,                                 !- Longitude {deg}
  -6,                                     !- Time Zone {hr}
  190,                                    !- Elevation {m}
  ;                                       !- Terrain

OS:Site:GroundTemperature:BuildingSurface,
  {7755b5a1-bc40-4423-8222-18b1b2156d82}, !- Handle
  19.527,                                 !- January Ground Temperature {C}
  19.502,                                 !- February Ground Temperature {C}
  19.536,                                 !- March Ground Temperature {C}
  19.598,                                 !- April Ground Temperature {C}
  20.002,                                 !- May Ground Temperature {C}
  21.64,                                  !- June Ground Temperature {C}
  22.225,                                 !- July Ground Temperature {C}
  22.375,                                 !- August Ground Temperature {C}
  21.449,                                 !- September Ground Temperature {C}
  20.121,                                 !- October Ground Temperature {C}
  19.802,                                 !- November Ground Temperature {C}
  19.633;                                 !- December Ground Temperature {C}

OS:Site:WaterMainsTemperature,
  {4fcf2bf5-123a-43bf-8d87-c03ca39acf5f}, !- Handle
  Correlation,                            !- Calculation Method
  ,                                       !- Temperature Schedule Name
  9.69,                                   !- Annual Average Outdoor Air Temperature {C}
  28.1;                                   !- Maximum Difference In Monthly Average Outdoor Air Temperatures {deltaC}

OS:SizingPeriod:DesignDay,
  {bc8164cf-7c41-4238-9129-c67e6b88b863}, !- Handle
  Sizing Period Design Day 1,             !- Name
  -20.6,                                  !- Maximum Dry-Bulb Temperature {C}
  0,                                      !- Daily Dry-Bulb Temperature Range {deltaC}
  -20.6,                                  !- Humidity Indicating Conditions at Maximum Dry-Bulb {BasedOnField A3}
  99063,                                  !- Barometric Pressure {Pa}
  4.9,                                    !- Wind Speed {m/s}
  270,                                    !- Wind Direction {deg}
  0,                                      !- Sky Clearness
  0,                                      !- Rain Indicator
  0,                                      !- Snow Indicator
  21,                                     !- Day of Month
  1,                                      !- Month
  WinterDesignDay,                        !- Day Type
  0,                                      !- Daylight Saving Time Indicator
  WetBulb,                                !- Humidity Indicating Type
  ,                                       !- Humidity Indicating Day Schedule Name
  DefaultMultipliers,                     !- Dry-Bulb Temperature Range Modifier Type
  ,                                       !- Dry-Bulb Temperature Range Modifier Schedule Name
  AshraeClearSky;                         !- Solar Model Indicator

OS:SizingPeriod:DesignDay,
  {0914109e-2f2e-464d-9688-db0f158acc07}, !- Handle
  Sizing Period Design Day 2,             !- Name
  33.2,                                   !- Maximum Dry-Bulb Temperature {C}
  10.7,                                   !- Daily Dry-Bulb Temperature Range {deltaC}
  23.8,                                   !- Humidity Indicating Conditions at Maximum Dry-Bulb {BasedOnField A3}
  99063,                                  !- Barometric Pressure {Pa}
  5.3,                                    !- Wind Speed {m/s}
  230,                                    !- Wind Direction {deg}
  1,                                      !- Sky Clearness
  0,                                      !- Rain Indicator
  0,                                      !- Snow Indicator
  21,                                     !- Day of Month
  7,                                      !- Month
  SummerDesignDay,                        !- Day Type
  0,                                      !- Daylight Saving Time Indicator
  WetBulb,                                !- Humidity Indicating Type
  ,                                       !- Humidity Indicating Day Schedule Name
  DefaultMultipliers,                     !- Dry-Bulb Temperature Range Modifier Type
  ,                                       !- Dry-Bulb Temperature Range Modifier Schedule Name
  AshraeClearSky;                         !- Solar Model Indicator

OS:ScheduleTypeLimits,
  {30a5e846-b372-4367-b7e7-970b75df0d82}, !- Handle
  Temperature,                            !- Name
  -60,                                    !- Lower Limit Value {BasedOnField A4}
  200,                                    !- Upper Limit Value {BasedOnField A4}
  CONTINUOUS,                             !- Numeric Type
  Temperature;                            !- Unit Type

OS:DefaultScheduleSet,
  {cb1c8208-1d84-4923-9a5f-078ecdb6f7b0}, !- Handle
  Default Schedules,                      !- Name
  ,                                       !- Hours of Operation Schedule Name
  {c6c1f3f6-6503-464a-bca6-15b0f35a3751}, !- Number of People Schedule Name
  {4070dd76-1b26-462b-b827-f08cceb97d04}, !- People Activity Level Schedule Name
  {6f008deb-65df-47b1-8670-71da64346036}, !- Lighting Schedule Name
  {6e9cbd93-da4f-49a3-abd3-7540779416ad}, !- Electric Equipment Schedule Name
  {f1b0dc2c-75d8-4c70-ac6e-9f74101631ca}, !- Gas Equipment Schedule Name
  {0383a5fc-7bd7-4a38-adbb-80f20ea1e6df}, !- Hot Water Equipment Schedule Name
  {29f1fd30-1bea-45df-8140-28db07ed73b0}, !- Infiltration Schedule Name
  ,                                       !- Steam Equipment Schedule Name
  ;                                       !- Other Equipment Schedule Name

OS:Schedule:Ruleset,
  {c6c1f3f6-6503-464a-bca6-15b0f35a3751}, !- Handle
  Medium Office Number of People Schedule, !- Name
  {b921a321-0992-4df5-824f-0d9e66e855d2}, !- Schedule Type Limits Name
  {5f2b9ada-db37-4d43-8b55-25871c3aede3}, !- Default Day Schedule Name
  {2b1a380e-dc13-4505-bc9d-d42eaf48f349}; !- Summer Design Day Schedule Name

OS:Schedule:Day,
  {5f2b9ada-db37-4d43-8b55-25871c3aede3}, !- Handle
  Medium Office Number of People All Other Days Schedule, !- Name
  {b921a321-0992-4df5-824f-0d9e66e855d2}, !- Schedule Type Limits Name
  ,                                       !- Interpolate to Timestep
  24,                                     !- Hour 1
  0,                                      !- Minute 1
  0;                                      !- Value Until Time 1

OS:Schedule:Day,
  {6aa460fc-71d6-4335-95f2-0740bf9727ee}, !- Handle
  Medium Office Number of People Summer Design Day Schedule, !- Name
  ,                                       !- Schedule Type Limits Name
  ,                                       !- Interpolate to Timestep
  6,                                      !- Hour 1
  0,                                      !- Minute 1
  0,                                      !- Value Until Time 1
  22,                                     !- Hour 2
  0,                                      !- Minute 2
  1,                                      !- Value Until Time 2
  24,                                     !- Hour 3
  0,                                      !- Minute 3
  0.05;                                   !- Value Until Time 3

OS:Schedule:Day,
  {2b1a380e-dc13-4505-bc9d-d42eaf48f349}, !- Handle
  Medium Office Number of People Summer Design Day Schedule 1, !- Name
  {b921a321-0992-4df5-824f-0d9e66e855d2}, !- Schedule Type Limits Name
  ,                                       !- Interpolate to Timestep
  6,                                      !- Hour 1
  0,                                      !- Minute 1
  0,                                      !- Value Until Time 1
  22,                                     !- Hour 2
  0,                                      !- Minute 2
  1,                                      !- Value Until Time 2
  24,                                     !- Hour 3
  0,                                      !- Minute 3
  0.05;                                   !- Value Until Time 3

OS:Schedule:Rule,
  {7fc9a33f-7d2d-4620-9cef-b8bf7a15e1e5}, !- Handle
  Medium Office Number of People Schedule Weekdays Rule, !- Name
  {c6c1f3f6-6503-464a-bca6-15b0f35a3751}, !- Schedule Ruleset Name
  1,                                      !- Rule Order
  {a1873abd-238e-4d1b-b39f-b0f00346f6de}, !- Day Schedule Name
  ,                                       !- Apply Sunday
  Yes,                                    !- Apply Monday
  Yes,                                    !- Apply Tuesday
  Yes,                                    !- Apply Wednesday
  Yes,                                    !- Apply Thursday
  Yes;                                    !- Apply Friday

OS:Schedule:Day,
  {a1873abd-238e-4d1b-b39f-b0f00346f6de}, !- Handle
  Medium Office Number of People Weekdays Schedule, !- Name
  {b921a321-0992-4df5-824f-0d9e66e855d2}, !- Schedule Type Limits Name
  ,                                       !- Interpolate to Timestep
  6,                                      !- Hour 1
  0,                                      !- Minute 1
  0,                                      !- Value Until Time 1
  7,                                      !- Hour 2
  0,                                      !- Minute 2
  0.1,                                    !- Value Until Time 2
  8,                                      !- Hour 3
  0,                                      !- Minute 3
  0.2,                                    !- Value Until Time 3
  12,                                     !- Hour 4
  0,                                      !- Minute 4
  0.95,                                   !- Value Until Time 4
  13,                                     !- Hour 5
  0,                                      !- Minute 5
  0.5,                                    !- Value Until Time 5
  17,                                     !- Hour 6
  0,                                      !- Minute 6
  0.95,                                   !- Value Until Time 6
  18,                                     !- Hour 7
  0,                                      !- Minute 7
  0.7,                                    !- Value Until Time 7
  20,                                     !- Hour 8
  0,                                      !- Minute 8
  0.4,                                    !- Value Until Time 8
  22,                                     !- Hour 9
  0,                                      !- Minute 9
  0.1,                                    !- Value Until Time 9
  24,                                     !- Hour 10
  0,                                      !- Minute 10
  0.05;                                   !- Value Until Time 10

OS:Schedule:Rule,
  {d6a088dd-0d19-4b2d-b781-d58b31a2b6c7}, !- Handle
  Medium Office Number of People Schedule Saturday Rule, !- Name
  {c6c1f3f6-6503-464a-bca6-15b0f35a3751}, !- Schedule Ruleset Name
  0,                                      !- Rule Order
  {72aa8f47-032a-474c-813d-d6e625d43bb7}, !- Day Schedule Name
  ,                                       !- Apply Sunday
  ,                                       !- Apply Monday
  ,                                       !- Apply Tuesday
  ,                                       !- Apply Wednesday
  ,                                       !- Apply Thursday
  ,                                       !- Apply Friday
  Yes;                                    !- Apply Saturday

OS:Schedule:Day,
  {72aa8f47-032a-474c-813d-d6e625d43bb7}, !- Handle
  Medium Office Number of People Saturday Schedule, !- Name
  {b921a321-0992-4df5-824f-0d9e66e855d2}, !- Schedule Type Limits Name
  ,                                       !- Interpolate to Timestep
  6,                                      !- Hour 1
  0,                                      !- Minute 1
  0,                                      !- Value Until Time 1
  8,                                      !- Hour 2
  0,                                      !- Minute 2
  0.1,                                    !- Value Until Time 2
  14,                                     !- Hour 3
  0,                                      !- Minute 3
  0.5,                                    !- Value Until Time 3
  17,                                     !- Hour 4
  0,                                      !- Minute 4
  0.1,                                    !- Value Until Time 4
  24,                                     !- Hour 5
  0,                                      !- Minute 5
  0;                                      !- Value Until Time 5

OS:ScheduleTypeLimits,
  {b921a321-0992-4df5-824f-0d9e66e855d2}, !- Handle
  Fractional,                             !- Name
  0,                                      !- Lower Limit Value {BasedOnField A4}
  1,                                      !- Upper Limit Value {BasedOnField A4}
  Continuous;                             !- Numeric Type

OS:Schedule:Ruleset,
  {4070dd76-1b26-462b-b827-f08cceb97d04}, !- Handle
  Medium Office People Activity Level Schedule, !- Name
  {9ce91334-aeda-40a9-8f99-5cb6ebc6c8e9}, !- Schedule Type Limits Name
  {5b277857-cf9e-44d2-8da7-2b948efd28a6}; !- Default Day Schedule Name

OS:Schedule:Day,
  {5b277857-cf9e-44d2-8da7-2b948efd28a6}, !- Handle
  Medium Office People Activity Level All Days Schedule, !- Name
  {9ce91334-aeda-40a9-8f99-5cb6ebc6c8e9}, !- Schedule Type Limits Name
  ,                                       !- Interpolate to Timestep
  24,                                     !- Hour 1
  0,                                      !- Minute 1
  120;                                    !- Value Until Time 1

OS:ScheduleTypeLimits,
  {9ce91334-aeda-40a9-8f99-5cb6ebc6c8e9}, !- Handle
  ActivityLevel,                          !- Name
  0,                                      !- Lower Limit Value {BasedOnField A4}
  ,                                       !- Upper Limit Value {BasedOnField A4}
  Continuous,                             !- Numeric Type
  ActivityLevel;                          !- Unit Type

OS:Schedule:Ruleset,
  {6f008deb-65df-47b1-8670-71da64346036}, !- Handle
  Medium Office Lighting Schedule,        !- Name
  {b921a321-0992-4df5-824f-0d9e66e855d2}, !- Schedule Type Limits Name
  {a507dde7-7c24-44ce-b6b5-ae5cf18fb61d}, !- Default Day Schedule Name
  {8fad3e71-ef44-4112-8ab0-8187fcf4c6ef}, !- Summer Design Day Schedule Name
  {b42f0aa6-4fc3-481c-8733-641e97ee48dd}; !- Winter Design Day Schedule Name

OS:Schedule:Day,
  {a507dde7-7c24-44ce-b6b5-ae5cf18fb61d}, !- Handle
  Medium Office Lighting All Other Days Schedule, !- Name
  {b921a321-0992-4df5-824f-0d9e66e855d2}, !- Schedule Type Limits Name
  ,                                       !- Interpolate to Timestep
  24,                                     !- Hour 1
  0,                                      !- Minute 1
  0.05;                                   !- Value Until Time 1

OS:Schedule:Day,
  {c542c3e0-c0ad-4f19-ac3d-6953479e942d}, !- Handle
  Medium Office Lighting Summer Design Day Schedule, !- Name
  ,                                       !- Schedule Type Limits Name
  ,                                       !- Interpolate to Timestep
  6,                                      !- Hour 1
  0,                                      !- Minute 1
  1,                                      !- Value Until Time 1
  24,                                     !- Hour 2
  0,                                      !- Minute 2
  0;                                      !- Value Until Time 2

OS:Schedule:Day,
  {8fad3e71-ef44-4112-8ab0-8187fcf4c6ef}, !- Handle
  Medium Office Lighting Summer Design Day Schedule 1, !- Name
  {b921a321-0992-4df5-824f-0d9e66e855d2}, !- Schedule Type Limits Name
  ,                                       !- Interpolate to Timestep
  6,                                      !- Hour 1
  0,                                      !- Minute 1
  1,                                      !- Value Until Time 1
  24,                                     !- Hour 2
  0,                                      !- Minute 2
  0;                                      !- Value Until Time 2

OS:Schedule:Day,
  {bb94d655-56be-48c8-b802-ffac710c0980}, !- Handle
  Medium Office Lighting Winter Design Day Schedule, !- Name
  ,                                       !- Schedule Type Limits Name
  ,                                       !- Interpolate to Timestep
  24,                                     !- Hour 1
  0,                                      !- Minute 1
  0;                                      !- Value Until Time 1

OS:Schedule:Day,
  {b42f0aa6-4fc3-481c-8733-641e97ee48dd}, !- Handle
  Medium Office Lighting Winter Design Day Schedule 1, !- Name
  {b921a321-0992-4df5-824f-0d9e66e855d2}, !- Schedule Type Limits Name
  ,                                       !- Interpolate to Timestep
  24,                                     !- Hour 1
  0,                                      !- Minute 1
  0;                                      !- Value Until Time 1

OS:Schedule:Rule,
  {f616d13a-f751-4c2b-9a09-e82caa262c47}, !- Handle
  Medium Office Lighting Schedule Weekdays Rule, !- Name
  {6f008deb-65df-47b1-8670-71da64346036}, !- Schedule Ruleset Name
  1,                                      !- Rule Order
  {ee95992f-10cd-44e4-8270-41c840253143}, !- Day Schedule Name
  ,                                       !- Apply Sunday
  Yes,                                    !- Apply Monday
  Yes,                                    !- Apply Tuesday
  Yes,                                    !- Apply Wednesday
  Yes,                                    !- Apply Thursday
  Yes;                                    !- Apply Friday

OS:Schedule:Day,
  {ee95992f-10cd-44e4-8270-41c840253143}, !- Handle
  Medium Office Lighting Weekdays Schedule, !- Name
  {b921a321-0992-4df5-824f-0d9e66e855d2}, !- Schedule Type Limits Name
  ,                                       !- Interpolate to Timestep
  5,                                      !- Hour 1
  0,                                      !- Minute 1
  0.05,                                   !- Value Until Time 1
  7,                                      !- Hour 2
  0,                                      !- Minute 2
  0.1,                                    !- Value Until Time 2
  8,                                      !- Hour 3
  0,                                      !- Minute 3
  0.3,                                    !- Value Until Time 3
  17,                                     !- Hour 4
  0,                                      !- Minute 4
  0.9,                                    !- Value Until Time 4
  18,                                     !- Hour 5
  0,                                      !- Minute 5
  0.7,                                    !- Value Until Time 5
  20,                                     !- Hour 6
  0,                                      !- Minute 6
  0.5,                                    !- Value Until Time 6
  22,                                     !- Hour 7
  0,                                      !- Minute 7
  0.3,                                    !- Value Until Time 7
  23,                                     !- Hour 8
  0,                                      !- Minute 8
  0.1,                                    !- Value Until Time 8
  24,                                     !- Hour 9
  0,                                      !- Minute 9
  0.05;                                   !- Value Until Time 9

OS:Schedule:Rule,
  {fd926554-e41c-4480-83ce-91302cd51625}, !- Handle
  Medium Office Lighting Schedule Saturday Rule, !- Name
  {6f008deb-65df-47b1-8670-71da64346036}, !- Schedule Ruleset Name
  0,                                      !- Rule Order
  {59982801-a802-445a-85d3-9c28fba6c63a}, !- Day Schedule Name
  ,                                       !- Apply Sunday
  ,                                       !- Apply Monday
  ,                                       !- Apply Tuesday
  ,                                       !- Apply Wednesday
  ,                                       !- Apply Thursday
  ,                                       !- Apply Friday
  Yes;                                    !- Apply Saturday

OS:Schedule:Day,
  {59982801-a802-445a-85d3-9c28fba6c63a}, !- Handle
  Medium Office Lighting Saturday Schedule, !- Name
  {b921a321-0992-4df5-824f-0d9e66e855d2}, !- Schedule Type Limits Name
  ,                                       !- Interpolate to Timestep
  6,                                      !- Hour 1
  0,                                      !- Minute 1
  0.05,                                   !- Value Until Time 1
  8,                                      !- Hour 2
  0,                                      !- Minute 2
  0.1,                                    !- Value Until Time 2
  14,                                     !- Hour 3
  0,                                      !- Minute 3
  0.5,                                    !- Value Until Time 3
  17,                                     !- Hour 4
  0,                                      !- Minute 4
  0.15,                                   !- Value Until Time 4
  24,                                     !- Hour 5
  0,                                      !- Minute 5
  0.05;                                   !- Value Until Time 5

OS:Schedule:Ruleset,
  {6e9cbd93-da4f-49a3-abd3-7540779416ad}, !- Handle
  Medium Office Electric Equipment Schedule, !- Name
  {b921a321-0992-4df5-824f-0d9e66e855d2}, !- Schedule Type Limits Name
  {563ba239-c454-44c8-9dc6-89bfa26514a1}, !- Default Day Schedule Name
  {ba4d0065-aed7-4579-9bac-daf000af88c6}, !- Summer Design Day Schedule Name
  {1adda4a5-aae5-48d0-80c8-773a8fd324da}; !- Winter Design Day Schedule Name

OS:Schedule:Day,
  {563ba239-c454-44c8-9dc6-89bfa26514a1}, !- Handle
  Medium Office Electric Equipment All Other Days Schedule, !- Name
  {b921a321-0992-4df5-824f-0d9e66e855d2}, !- Schedule Type Limits Name
  ,                                       !- Interpolate to Timestep
  24,                                     !- Hour 1
  0,                                      !- Minute 1
  0.3;                                    !- Value Until Time 1

OS:Schedule:Day,
  {3175e2f5-c9fe-4f3a-b71e-11a852679f0f}, !- Handle
  Medium Office Electric Equipment Summer Design Day Schedule, !- Name
  ,                                       !- Schedule Type Limits Name
  ,                                       !- Interpolate to Timestep
  6,                                      !- Hour 1
  0,                                      !- Minute 1
  1,                                      !- Value Until Time 1
  24,                                     !- Hour 2
  0,                                      !- Minute 2
  0;                                      !- Value Until Time 2

OS:Schedule:Day,
  {ba4d0065-aed7-4579-9bac-daf000af88c6}, !- Handle
  Medium Office Electric Equipment Summer Design Day Schedule 1, !- Name
  {b921a321-0992-4df5-824f-0d9e66e855d2}, !- Schedule Type Limits Name
  ,                                       !- Interpolate to Timestep
  6,                                      !- Hour 1
  0,                                      !- Minute 1
  1,                                      !- Value Until Time 1
  24,                                     !- Hour 2
  0,                                      !- Minute 2
  0;                                      !- Value Until Time 2

OS:Schedule:Day,
  {d0b8882d-a7f0-4d94-956a-ee5839c52d1a}, !- Handle
  Medium Office Electric Equipment Winter Design Day Schedule, !- Name
  ,                                       !- Schedule Type Limits Name
  ,                                       !- Interpolate to Timestep
  24,                                     !- Hour 1
  0,                                      !- Minute 1
  0;                                      !- Value Until Time 1

OS:Schedule:Day,
  {1adda4a5-aae5-48d0-80c8-773a8fd324da}, !- Handle
  Medium Office Electric Equipment Winter Design Day Schedule 1, !- Name
  {b921a321-0992-4df5-824f-0d9e66e855d2}, !- Schedule Type Limits Name
  ,                                       !- Interpolate to Timestep
  24,                                     !- Hour 1
  0,                                      !- Minute 1
  0;                                      !- Value Until Time 1

OS:Schedule:Rule,
  {a6d91314-5d85-4232-a0f3-a657be0b6404}, !- Handle
  Medium Office Electric Equipment Schedule Weekdays Rule, !- Name
  {6e9cbd93-da4f-49a3-abd3-7540779416ad}, !- Schedule Ruleset Name
  1,                                      !- Rule Order
  {b5ca026e-42e3-4db3-aeaa-815e568523df}, !- Day Schedule Name
  ,                                       !- Apply Sunday
  Yes,                                    !- Apply Monday
  Yes,                                    !- Apply Tuesday
  Yes,                                    !- Apply Wednesday
  Yes,                                    !- Apply Thursday
  Yes;                                    !- Apply Friday

OS:Schedule:Day,
  {b5ca026e-42e3-4db3-aeaa-815e568523df}, !- Handle
  Medium Office Electric Equipment Weekdays Schedule, !- Name
  {b921a321-0992-4df5-824f-0d9e66e855d2}, !- Schedule Type Limits Name
  ,                                       !- Interpolate to Timestep
  8,                                      !- Hour 1
  0,                                      !- Minute 1
  0.4,                                    !- Value Until Time 1
  12,                                     !- Hour 2
  0,                                      !- Minute 2
  0.9,                                    !- Value Until Time 2
  13,                                     !- Hour 3
  0,                                      !- Minute 3
  0.8,                                    !- Value Until Time 3
  17,                                     !- Hour 4
  0,                                      !- Minute 4
  0.9,                                    !- Value Until Time 4
  18,                                     !- Hour 5
  0,                                      !- Minute 5
  0.8,                                    !- Value Until Time 5
  20,                                     !- Hour 6
  0,                                      !- Minute 6
  0.6,                                    !- Value Until Time 6
  22,                                     !- Hour 7
  0,                                      !- Minute 7
  0.5,                                    !- Value Until Time 7
  24,                                     !- Hour 8
  0,                                      !- Minute 8
  0.4;                                    !- Value Until Time 8

OS:Schedule:Rule,
  {65ce6860-3595-4803-90fa-2f3c9cd6bfa5}, !- Handle
  Medium Office Electric Equipment Schedule Saturday Rule, !- Name
  {6e9cbd93-da4f-49a3-abd3-7540779416ad}, !- Schedule Ruleset Name
  0,                                      !- Rule Order
  {1937dc30-8e70-4406-a303-71caf1eff583}, !- Day Schedule Name
  ,                                       !- Apply Sunday
  ,                                       !- Apply Monday
  ,                                       !- Apply Tuesday
  ,                                       !- Apply Wednesday