
OS:Version,
  {77f0d743-7f93-4898-be5c-52157689ba1f}, !- Handle
  1.11.4;                                 !- Version Identifier

OS:SimulationControl,
  {38d81519-e758-470c-ab7b-4e2aa0f2b4f5}, !- Handle
  Yes,                                    !- Do Zone Sizing Calculation
  Yes,                                    !- Do System Sizing Calculation
  ,                                       !- Do Plant Sizing Calculation
  No,                                     !- Run Simulation for Sizing Periods
  Yes;                                    !- Run Simulation for Weather File Run Periods

OS:Timestep,
  {ddf744ea-8978-4ffc-bb9c-2db813dd5f75}, !- Handle
  6;                                      !- Number of Timesteps per Hour

OS:RunPeriod,
  {e0f55ac8-f4af-427d-a160-eaa8972b7e33}, !- Handle
  Run Period 1,                           !- Name
  1,                                      !- Begin Month
  1,                                      !- Begin Day of Month
  12,                                     !- End Month
  31,                                     !- End Day of Month
  No,                                     !- Use Weather File Holidays and Special Days
  No,                                     !- Use Weather File Daylight Saving Period
  No,                                     !- Apply Weekend Holiday Rule
  Yes,                                    !- Use Weather File Rain Indicators
  Yes,                                    !- Use Weather File Snow Indicators
  1;                                      !- Number of Times Runperiod to be Repeated

OS:SurfaceConvectionAlgorithm:Inside,
  {b191ba46-98f5-4f0b-9cf8-589b42c1b0e2}, !- Handle
  TARP;                                   !- Algorithm

OS:SurfaceConvectionAlgorithm:Outside,
  {845786d4-c028-4e34-8f15-bdd3e82788c6}, !- Handle
  DOE-2;                                  !- Algorithm

OS:HeatBalanceAlgorithm,
  {0ba0e062-4f56-4b7d-80a9-031433260994}, !- Handle
  ConductionTransferFunction,             !- Algorithm
  200;                                    !- Surface Temperature Upper Limit {C}

OS:ZoneAirHeatBalanceAlgorithm,
  {f4e7b100-ba5e-4cec-8ac4-779287cc918b}, !- Handle
  ThirdOrderBackwardDifference;           !- Algorithm

OS:ConvergenceLimits,
  {cba747c2-a49a-4099-b33d-2011ea2851ae}, !- Handle
  1;                                      !- Minimum System Timestep {minutes}

OS:ShadowCalculation,
  {3c5578a0-4f85-4b6b-9eb4-e83072371569}, !- Handle
  20,                                     !- Calculation Frequency
  15000;                                  !- Maximum Figures in Shadow Overlap Calculations

OS:Site,
  {5f7dad99-98b8-4079-9acb-8a0e22685b00}, !- Handle
  Site 1,                                 !- Name
  41.77,                                  !- Latitude {deg}
  -87.75,                                 !- Longitude {deg}
  -6,                                     !- Time Zone {hr}
  190,                                    !- Elevation {m}
  ;                                       !- Terrain

OS:Site:GroundTemperature:BuildingSurface,
  {e1f298cf-1292-49df-9066-f084ca89dae4}, !- Handle
  19.527,                                 !- January Ground Temperature {C}
  19.502,                                 !- February Ground Temperature {C}
  19.536,                                 !- March Ground Temperature {C}
  19.598,                                 !- April Ground Temperature {C}
  20.002,                                 !- May Ground Temperature {C}
  21.64,                                  !- June Ground Temperature {C}
  22.225,                                 !- July Ground Temperature {C}
  22.375,                                 !- August Ground Temperature {C}
  21.449,                                 !- September Ground Temperature {C}
  20.121,                                 !- October Ground Temperature {C}
  19.802,                                 !- November Ground Temperature {C}
  19.633;                                 !- December Ground Temperature {C}

OS:Site:GroundTemperature:Deep,
  {f6e29b7f-5cbb-4eab-9cb5-a5497f4d4c44}, !- Handle
  19.527,                                 !- January Deep Ground Temperature {C}
  19.502,                                 !- February Deep Ground Temperature {C}
  19.536,                                 !- March Deep Ground Temperature {C}
  19.598,                                 !- April Deep Ground Temperature {C}
  20.002,                                 !- May Deep Ground Temperature {C}
  21.64,                                  !- June Deep Ground Temperature {C}
  22.225,                                 !- July Deep Ground Temperature {C}
  22.375,                                 !- August Deep Ground Temperature {C}
  21.449,                                 !- September Deep Ground Temperature {C}
  20.121,                                 !- October Deep Ground Temperature {C}
  19.802,                                 !- November Deep Ground Temperature {C}
  19.633;                                 !- December Deep Ground Temperature {C}

OS:Site:WaterMainsTemperature,
  {1d78944d-97bb-46ee-8805-c506b8621933}, !- Handle
  Correlation,                            !- Calculation Method
  ,                                       !- Temperature Schedule Name
  9.69,                                   !- Annual Average Outdoor Air Temperature {C}
  28.1;                                   !- Maximum Difference In Monthly Average Outdoor Air Temperatures {deltaC}

OS:SizingPeriod:DesignDay,
  {537699f7-633a-412a-b897-cb8c62825c28}, !- Handle
  Sizing Period Design Day 1,             !- Name
  -20.6,                                  !- Maximum Dry-Bulb Temperature {C}
  0,                                      !- Daily Dry-Bulb Temperature Range {deltaC}
  -20.6,                                  !- Humidity Indicating Conditions at Maximum Dry-Bulb
  99063,                                  !- Barometric Pressure {Pa}
  4.9,                                    !- Wind Speed {m/s}
  270,                                    !- Wind Direction {deg}
  0,                                      !- Sky Clearness
  0,                                      !- Rain Indicator
  0,                                      !- Snow Indicator
  21,                                     !- Day of Month
  1,                                      !- Month
  WinterDesignDay,                        !- Day Type
  0,                                      !- Daylight Saving Time Indicator
  WetBulb,                                !- Humidity Indicating Type
  ,                                       !- Humidity Indicating Day Schedule Name
  DefaultMultipliers,                     !- Dry-Bulb Temperature Range Modifier Type
  ,                                       !- Dry-Bulb Temperature Range Modifier Schedule Name
  AshraeClearSky;                         !- Solar Model Indicator

OS:SizingPeriod:DesignDay,
  {bd38c8c5-1ed7-4e7e-9632-1efb66b9addf}, !- Handle
  Sizing Period Design Day 2,             !- Name
  33.2,                                   !- Maximum Dry-Bulb Temperature {C}
  10.7,                                   !- Daily Dry-Bulb Temperature Range {deltaC}
  23.8,                                   !- Humidity Indicating Conditions at Maximum Dry-Bulb
  99063,                                  !- Barometric Pressure {Pa}
  5.3,                                    !- Wind Speed {m/s}
  230,                                    !- Wind Direction {deg}
  1,                                      !- Sky Clearness
  0,                                      !- Rain Indicator
  0,                                      !- Snow Indicator
  21,                                     !- Day of Month
  7,                                      !- Month
  SummerDesignDay,                        !- Day Type
  0,                                      !- Daylight Saving Time Indicator
  WetBulb,                                !- Humidity Indicating Type
  ,                                       !- Humidity Indicating Day Schedule Name
  DefaultMultipliers,                     !- Dry-Bulb Temperature Range Modifier Type
  ,                                       !- Dry-Bulb Temperature Range Modifier Schedule Name
  AshraeClearSky;                         !- Solar Model Indicator

OS:ScheduleTypeLimits,
  {9eaf0b1c-7868-4c9f-aa02-1009688a0990}, !- Handle
  Temperature,                            !- Name
  -60,                                    !- Lower Limit Value
  200,                                    !- Upper Limit Value
  CONTINUOUS,                             !- Numeric Type
  Temperature;                            !- Unit Type

OS:DefaultScheduleSet,
  {de0bdff2-ab47-4ae2-912e-0f7b30868c9c}, !- Handle
  Default Schedules,                      !- Name
  ,                                       !- Hours of Operation Schedule Name
  {4ed957b0-57c7-4aea-9981-3d6258333b04}, !- Number of People Schedule Name
  {480ca3fd-f056-4d1e-98d3-4364c4d321bb}, !- People Activity Level Schedule Name
  {202dbfb0-9429-4e93-8534-a00dfd3d7229}, !- Lighting Schedule Name
  {277b3057-1288-41e8-84e1-4041984fe3f7}, !- Electric Equipment Schedule Name
  {3ca03b81-7c6d-4de0-a052-d9f47ab92d8a}, !- Gas Equipment Schedule Name
  {64519562-55ee-4df6-82fd-3d1a25aeed7b}, !- Hot Water Equipment Schedule Name
  {af8f41ef-9040-4782-b4b2-71fca388869a}, !- Infiltration Schedule Name
  ,                                       !- Steam Equipment Schedule Name
  ;                                       !- Other Equipment Schedule Name

OS:Schedule:Ruleset,
  {4ed957b0-57c7-4aea-9981-3d6258333b04}, !- Handle
  Medium Office Number of People Schedule, !- Name
  {37182ea4-4c91-421e-847f-8790cbb72bad}, !- Schedule Type Limits Name
  {e329fcd9-ce3c-4e88-b1ed-caa688864001}, !- Default Day Schedule Name
  {d2f7e76c-bca9-4127-b5ba-9d393bfe35b7}; !- Summer Design Day Schedule Name

OS:Schedule:Day,
  {e329fcd9-ce3c-4e88-b1ed-caa688864001}, !- Handle
  Medium Office Number of People All Other Days Schedule, !- Name
  {37182ea4-4c91-421e-847f-8790cbb72bad}, !- Schedule Type Limits Name
  ,                                       !- Interpolate to Timestep
  24,                                     !- Hour 1
  0,                                      !- Minute 1
  0;                                      !- Value Until Time 1

OS:Schedule:Day,
  {3cb5fb84-2608-49ef-9f31-a24c8654d374}, !- Handle
  Medium Office Number of People Summer Design Day Schedule, !- Name
  ,                                       !- Schedule Type Limits Name
  ,                                       !- Interpolate to Timestep
  6,                                      !- Hour 1
  0,                                      !- Minute 1
  0,                                      !- Value Until Time 1
  22,                                     !- Hour 2
  0,                                      !- Minute 2
  1,                                      !- Value Until Time 2
  24,                                     !- Hour 3
  0,                                      !- Minute 3
  0.05;                                   !- Value Until Time 3

OS:Schedule:Day,
  {d2f7e76c-bca9-4127-b5ba-9d393bfe35b7}, !- Handle
  Medium Office Number of People Summer Design Day Schedule 1, !- Name
  {37182ea4-4c91-421e-847f-8790cbb72bad}, !- Schedule Type Limits Name
  ,                                       !- Interpolate to Timestep
  6,                                      !- Hour 1
  0,                                      !- Minute 1
  0,                                      !- Value Until Time 1
  22,                                     !- Hour 2
  0,                                      !- Minute 2
  1,                                      !- Value Until Time 2
  24,                                     !- Hour 3
  0,                                      !- Minute 3
  0.05;                                   !- Value Until Time 3

OS:Schedule:Rule,
  {5d0458d8-7795-411e-aff5-63ee55850414}, !- Handle
  Medium Office Number of People Schedule Weekdays Rule, !- Name
  {4ed957b0-57c7-4aea-9981-3d6258333b04}, !- Schedule Ruleset Name
  1,                                      !- Rule Order
  {2a28d47b-c0b7-4f34-a27d-50a8ddf2b384}, !- Day Schedule Name
  ,                                       !- Apply Sunday
  Yes,                                    !- Apply Monday
  Yes,                                    !- Apply Tuesday
  Yes,                                    !- Apply Wednesday
  Yes,                                    !- Apply Thursday
  Yes;                                    !- Apply Friday

OS:Schedule:Day,
  {2a28d47b-c0b7-4f34-a27d-50a8ddf2b384}, !- Handle
  Medium Office Number of People Weekdays Schedule, !- Name
  {37182ea4-4c91-421e-847f-8790cbb72bad}, !- Schedule Type Limits Name
  ,                                       !- Interpolate to Timestep
  6,                                      !- Hour 1
  0,                                      !- Minute 1
  0,                                      !- Value Until Time 1
  7,                                      !- Hour 2
  0,                                      !- Minute 2
  0.1,                                    !- Value Until Time 2
  8,                                      !- Hour 3
  0,                                      !- Minute 3
  0.2,                                    !- Value Until Time 3
  12,                                     !- Hour 4
  0,                                      !- Minute 4
  0.95,                                   !- Value Until Time 4
  13,                                     !- Hour 5
  0,                                      !- Minute 5
  0.5,                                    !- Value Until Time 5
  17,                                     !- Hour 6
  0,                                      !- Minute 6
  0.95,                                   !- Value Until Time 6
  18,                                     !- Hour 7
  0,                                      !- Minute 7
  0.7,                                    !- Value Until Time 7
  20,                                     !- Hour 8
  0,                                      !- Minute 8
  0.4,                                    !- Value Until Time 8
  22,                                     !- Hour 9
  0,                                      !- Minute 9
  0.1,                                    !- Value Until Time 9
  24,                                     !- Hour 10
  0,                                      !- Minute 10
  0.05;                                   !- Value Until Time 10

OS:Schedule:Rule,
  {4a3e2800-1e34-462f-b4e9-42cb7b6a7a46}, !- Handle
  Medium Office Number of People Schedule Saturday Rule, !- Name
  {4ed957b0-57c7-4aea-9981-3d6258333b04}, !- Schedule Ruleset Name
  0,                                      !- Rule Order
  {d4be0ab1-42e2-42bb-a6d8-0d6e6963ca57}, !- Day Schedule Name
  ,                                       !- Apply Sunday
  ,                                       !- Apply Monday
  ,                                       !- Apply Tuesday
  ,                                       !- Apply Wednesday
  ,                                       !- Apply Thursday
  ,                                       !- Apply Friday
  Yes;                                    !- Apply Saturday

OS:Schedule:Day,
  {d4be0ab1-42e2-42bb-a6d8-0d6e6963ca57}, !- Handle
  Medium Office Number of People Saturday Schedule, !- Name
  {37182ea4-4c91-421e-847f-8790cbb72bad}, !- Schedule Type Limits Name
  ,                                       !- Interpolate to Timestep
  6,                                      !- Hour 1
  0,                                      !- Minute 1
  0,                                      !- Value Until Time 1
  8,                                      !- Hour 2
  0,                                      !- Minute 2
  0.1,                                    !- Value Until Time 2
  14,                                     !- Hour 3
  0,                                      !- Minute 3
  0.5,                                    !- Value Until Time 3
  17,                                     !- Hour 4
  0,                                      !- Minute 4
  0.1,                                    !- Value Until Time 4
  24,                                     !- Hour 5
  0,                                      !- Minute 5
  0;                                      !- Value Until Time 5

OS:ScheduleTypeLimits,
  {37182ea4-4c91-421e-847f-8790cbb72bad}, !- Handle
  Fractional,                             !- Name
  0,                                      !- Lower Limit Value
  1,                                      !- Upper Limit Value
  Continuous;                             !- Numeric Type

OS:Schedule:Ruleset,
  {480ca3fd-f056-4d1e-98d3-4364c4d321bb}, !- Handle
  Medium Office People Activity Level Schedule, !- Name
  {effbab6a-e425-4ada-8f55-a2ed52694f3c}, !- Schedule Type Limits Name
  {40e3ffc9-629c-470f-9eb1-1079aa180a1f}; !- Default Day Schedule Name

OS:Schedule:Day,
  {40e3ffc9-629c-470f-9eb1-1079aa180a1f}, !- Handle
  Medium Office People Activity Level All Days Schedule, !- Name
  {effbab6a-e425-4ada-8f55-a2ed52694f3c}, !- Schedule Type Limits Name
  ,                                       !- Interpolate to Timestep
  24,                                     !- Hour 1
  0,                                      !- Minute 1
  120;                                    !- Value Until Time 1

OS:ScheduleTypeLimits,
  {effbab6a-e425-4ada-8f55-a2ed52694f3c}, !- Handle
  ActivityLevel,                          !- Name
  0,                                      !- Lower Limit Value
  ,                                       !- Upper Limit Value
  Continuous,                             !- Numeric Type
  ActivityLevel;                          !- Unit Type

OS:Schedule:Ruleset,
  {202dbfb0-9429-4e93-8534-a00dfd3d7229}, !- Handle
  Medium Office Lighting Schedule,        !- Name
  {37182ea4-4c91-421e-847f-8790cbb72bad}, !- Schedule Type Limits Name
  {19c57b62-cc29-472b-99e5-2bb8a6dd45d4}, !- Default Day Schedule Name
  {01d60c21-02f0-4b8e-b623-3aacc20227ed}, !- Summer Design Day Schedule Name
  {d3ba6595-7503-4b0b-b583-c74d5b713428}; !- Winter Design Day Schedule Name

OS:Schedule:Day,
  {19c57b62-cc29-472b-99e5-2bb8a6dd45d4}, !- Handle
  Medium Office Lighting All Other Days Schedule, !- Name
  {37182ea4-4c91-421e-847f-8790cbb72bad}, !- Schedule Type Limits Name
  ,                                       !- Interpolate to Timestep
  24,                                     !- Hour 1
  0,                                      !- Minute 1
  0.05;                                   !- Value Until Time 1

OS:Schedule:Day,
  {2c5a0a84-48cf-480a-86fd-b519541594a3}, !- Handle
  Medium Office Lighting Summer Design Day Schedule, !- Name
  ,                                       !- Schedule Type Limits Name
  ,                                       !- Interpolate to Timestep
  6,                                      !- Hour 1
  0,                                      !- Minute 1
  1,                                      !- Value Until Time 1
  24,                                     !- Hour 2
  0,                                      !- Minute 2
  0;                                      !- Value Until Time 2

OS:Schedule:Day,
  {01d60c21-02f0-4b8e-b623-3aacc20227ed}, !- Handle
  Medium Office Lighting Summer Design Day Schedule 1, !- Name
  {37182ea4-4c91-421e-847f-8790cbb72bad}, !- Schedule Type Limits Name
  ,                                       !- Interpolate to Timestep
  6,                                      !- Hour 1
  0,                                      !- Minute 1
  1,                                      !- Value Until Time 1
  24,                                     !- Hour 2
  0,                                      !- Minute 2
  0;                                      !- Value Until Time 2

OS:Schedule:Day,
  {5ebcac03-f5f0-4fdc-87cf-0a7aad00f98e}, !- Handle
  Medium Office Lighting Winter Design Day Schedule, !- Name
  ,                                       !- Schedule Type Limits Name
  ,                                       !- Interpolate to Timestep
  24,                                     !- Hour 1
  0,                                      !- Minute 1
  0;                                      !- Value Until Time 1

OS:Schedule:Day,
  {d3ba6595-7503-4b0b-b583-c74d5b713428}, !- Handle
  Medium Office Lighting Winter Design Day Schedule 1, !- Name
  {37182ea4-4c91-421e-847f-8790cbb72bad}, !- Schedule Type Limits Name
  ,                                       !- Interpolate to Timestep
  24,                                     !- Hour 1
  0,                                      !- Minute 1
  0;                                      !- Value Until Time 1

OS:Schedule:Rule,
  {f30e8638-65f9-4e71-b840-892163ff0221}, !- Handle
  Medium Office Lighting Schedule Weekdays Rule, !- Name
  {202dbfb0-9429-4e93-8534-a00dfd3d7229}, !- Schedule Ruleset Name
  1,                                      !- Rule Order
  {da60d061-58d5-4a34-a112-75ebfae1cdc6}, !- Day Schedule Name
  ,                                       !- Apply Sunday
  Yes,                                    !- Apply Monday
  Yes,                                    !- Apply Tuesday
  Yes,                                    !- Apply Wednesday
  Yes,                                    !- Apply Thursday
  Yes;                                    !- Apply Friday

OS:Schedule:Day,
  {da60d061-58d5-4a34-a112-75ebfae1cdc6}, !- Handle
  Medium Office Lighting Weekdays Schedule, !- Name
  {37182ea4-4c91-421e-847f-8790cbb72bad}, !- Schedule Type Limits Name
  ,                                       !- Interpolate to Timestep
  5,                                      !- Hour 1
  0,                                      !- Minute 1
  0.05,                                   !- Value Until Time 1
  7,                                      !- Hour 2
  0,                                      !- Minute 2
  0.1,                                    !- Value Until Time 2
  8,                                      !- Hour 3
  0,                                      !- Minute 3
  0.3,                                    !- Value Until Time 3
  17,                                     !- Hour 4
  0,                                      !- Minute 4
  0.9,                                    !- Value Until Time 4
  18,                                     !- Hour 5
  0,                                      !- Minute 5
  0.7,                                    !- Value Until Time 5
  20,                                     !- Hour 6
  0,                                      !- Minute 6
  0.5,                                    !- Value Until Time 6
  22,                                     !- Hour 7
  0,                                      !- Minute 7
  0.3,                                    !- Value Until Time 7
  23,                                     !- Hour 8
  0,                                      !- Minute 8
  0.1,                                    !- Value Until Time 8
  24,                                     !- Hour 9
  0,                                      !- Minute 9
  0.05;                                   !- Value Until Time 9

OS:Schedule:Rule,
  {f04c8e42-7c8f-49ae-996f-86b9a1904621}, !- Handle
  Medium Office Lighting Schedule Saturday Rule, !- Name
  {202dbfb0-9429-4e93-8534-a00dfd3d7229}, !- Schedule Ruleset Name
  0,                                      !- Rule Order
  {64669b96-e8b5-48b7-92e8-d978eebf4b14}, !- Day Schedule Name
  ,                                       !- Apply Sunday
  ,                                       !- Apply Monday
  ,                                       !- Apply Tuesday
  ,                                       !- Apply Wednesday
  ,                                       !- Apply Thursday
  ,                                       !- Apply Friday
  Yes;                                    !- Apply Saturday

OS:Schedule:Day,
  {64669b96-e8b5-48b7-92e8-d978eebf4b14}, !- Handle
  Medium Office Lighting Saturday Schedule, !- Name
  {37182ea4-4c91-421e-847f-8790cbb72bad}, !- Schedule Type Limits Name
  ,                                       !- Interpolate to Timestep
  6,                                      !- Hour 1
  0,                                      !- Minute 1
  0.05,                                   !- Value Until Time 1
  8,                                      !- Hour 2
  0,                                      !- Minute 2
  0.1,                                    !- Value Until Time 2
  14,                                     !- Hour 3
  0,                                      !- Minute 3
  0.5,                                    !- Value Until Time 3
  17,                                     !- Hour 4
  0,                                      !- Minute 4
  0.15,                                   !- Value Until Time 4
  24,                                     !- Hour 5
  0,                                      !- Minute 5
  0.05;                                   !- Value Until Time 5

OS:Schedule:Ruleset,
  {277b3057-1288-41e8-84e1-4041984fe3f7}, !- Handle
  Medium Office Electric Equipment Schedule, !- Name
  {37182ea4-4c91-421e-847f-8790cbb72bad}, !- Schedule Type Limits Name
  {8ed3a98a-04d7-4ea7-81c5-0a705b66ba47}, !- Default Day Schedule Name
  {4db438c7-5411-4b0e-abb5-82a0c1cafdd5}, !- Summer Design Day Schedule Name
  {17ec3c8e-6577-437f-800e-2d67cca2e451}; !- Winter Design Day Schedule Name

OS:Schedule:Day,
  {8ed3a98a-04d7-4ea7-81c5-0a705b66ba47}, !- Handle
  Medium Office Electric Equipment All Other Days Schedule, !- Name
  {37182ea4-4c91-421e-847f-8790cbb72bad}, !- Schedule Type Limits Name
  ,                                       !- Interpolate to Timestep
  24,                                     !- Hour 1
  0,                                      !- Minute 1
  0.3;                                    !- Value Until Time 1

OS:Schedule:Day,
  {ccb88e0d-5edb-4b79-9dcc-8e6988f2bad1}, !- Handle
  Medium Office Electric Equipment Summer Design Day Schedule, !- Name
  ,                                       !- Schedule Type Limits Name
  ,                                       !- Interpolate to Timestep
  6,                                      !- Hour 1
  0,                                      !- Minute 1
  1,                                      !- Value Until Time 1
  24,                                     !- Hour 2
  0,                                      !- Minute 2
  0;                                      !- Value Until Time 2

OS:Schedule:Day,
  {4db438c7-5411-4b0e-abb5-82a0c1cafdd5}, !- Handle
  Medium Office Electric Equipment Summer Design Day Schedule 1, !- Name
  {37182ea4-4c91-421e-847f-8790cbb72bad}, !- Schedule Type Limits Name
  ,                                       !- Interpolate to Timestep
  6,                                      !- Hour 1
  0,                                      !- Minute 1
  1,                                      !- Value Until Time 1
  24,                                     !- Hour 2
  0,                                      !- Minute 2
  0;                                      !- Value Until Time 2

OS:Schedule:Day,
  {79ac54a0-c308-4c8e-81d6-f5736c95af85}, !- Handle
  Medium Office Electric Equipment Winter Design Day Schedule, !- Name
  ,                                       !- Schedule Type Limits Name
  ,                                       !- Interpolate to Timestep
  24,                                     !- Hour 1
  0,                                      !- Minute 1
  0;                                      !- Value Until Time 1

OS:Schedule:Day,
  {17ec3c8e-6577-437f-800e-2d67cca2e451}, !- Handle
  Medium Office Electric Equipment Winter Design Day Schedule 1, !- Name
  {37182ea4-4c91-421e-847f-8790cbb72bad}, !- Schedule Type Limits Name
  ,                                       !- Interpolate to Timestep
  24,                                     !- Hour 1
  0,                                      !- Minute 1
  0;                                      !- Value Until Time 1

OS:Schedule:Rule,
  {d15826fd-7a40-4781-8345-171dfe508e95}, !- Handle
  Medium Office Electric Equipment Schedule Weekdays Rule, !- Name
  {277b3057-1288-41e8-84e1-4041984fe3f7}, !- Schedule Ruleset Name
  1,                                      !- Rule Order
  {40c58ee4-ceaa-4d7e-a053-b068a5884f08}, !- Day Schedule Name
  ,                                       !- Apply Sunday
  Yes,                                    !- Apply Monday
  Yes,                                    !- Apply Tuesday
  Yes,                                    !- Apply Wednesday
  Yes,                                    !- Apply Thursday
  Yes;                                    !- Apply Friday

OS:Schedule:Day,
  {40c58ee4-ceaa-4d7e-a053-b068a5884f08}, !- Handle
  Medium Office Electric Equipment Weekdays Schedule, !- Name
  {37182ea4-4c91-421e-847f-8790cbb72bad}, !- Schedule Type Limits Name
  ,                                       !- Interpolate to Timestep
  8,                                      !- Hour 1
  0,                                      !- Minute 1
  0.4,                                    !- Value Until Time 1
  12,                                     !- Hour 2
  0,                                      !- Minute 2
  0.9,                                    !- Value Until Time 2
  13,                                     !- Hour 3
  0,                                      !- Minute 3
  0.8,                                    !- Value Until Time 3
  17,                                     !- Hour 4
  0,                                      !- Minute 4
  0.9,                                    !- Value Until Time 4
  18,                                     !- Hour 5
  0,                                      !- Minute 5
  0.8,                                    !- Value Until Time 5
  20,                                     !- Hour 6