
OS:Version,
  {3b1c6223-1511-4a85-8948-910fcc77234c}, !- Handle
  1.5.5;                                  !- Version Identifier

OS:Material,
  {d3c01985-08d7-4b3b-8428-362f20d25ec8}, !- Handle
  10 PSF Roof - 1 in.,                    !- Name
  VeryRough,                              !- Roughness
  0.0254,                                 !- Thickness {m}
  1.73142696023794,                       !- Conductivity {W/m-K}
  1922.21560487522,                       !- Density {kg/m3}
  837.36,                                 !- Specific Heat {J/kg-K}
  ,                                       !- Thermal Absorptance
  0,                                      !- Solar Absorptance
  0;                                      !- Visible Absorptance

OS:StandardsInformation:Material,
  {bf768c31-51bd-4d4e-a689-7bfd2941ee3e}, !- Handle
  {d3c01985-08d7-4b3b-8428-362f20d25ec8}, !- Material Name
  CEC Title24-2013,                       !- Material Standard
  ,                                       !- Material Standard Source
  Roofing,                                !- Standards Category
  10 PSF Roof - 1 in.;                    !- Standards Identifier

OS:Material,
  {21cdf969-766d-447c-bf31-e8f8fb2129f6}, !- Handle
  15 PSF Roof - 1 1/2 in.,                !- Name
  VeryRough,                              !- Roughness
  0.0381,                                 !- Thickness {m}
  2.59714044035689,                       !- Conductivity {W/m-K}
  1922.21560487522,                       !- Density {kg/m3}
  837.36,                                 !- Specific Heat {J/kg-K}
  ,                                       !- Thermal Absorptance
  0,                                      !- Solar Absorptance
  0;                                      !- Visible Absorptance

OS:StandardsInformation:Material,
  {164b8f23-52aa-43e0-bd81-4f2a02b7cb15}, !- Handle
  {21cdf969-766d-447c-bf31-e8f8fb2129f6}, !- Material Name
  CEC Title24-2013,                       !- Material Standard
  ,                                       !- Material Standard Source
  Roofing,                                !- Standards Category
  15 PSF Roof - 1 1/2 in.;                !- Standards Identifier

OS:Material,
  {87c3970f-a18e-439a-83b0-100525207164}, !- Handle
  25 PSF Roof - 2 1/2 in.,                !- Name
  VeryRough,                              !- Roughness
  0.0635,                                 !- Thickness {m}
  4.32856740059485,                       !- Conductivity {W/m-K}
  1922.21560487522,                       !- Density {kg/m3}
  837.36,                                 !- Specific Heat {J/kg-K}
  ,                                       !- Thermal Absorptance
  0,                                      !- Solar Absorptance
  0;                                      !- Visible Absorptance

OS:StandardsInformation:Material,
  {7df15d2c-5121-4dff-96ff-94fa64d232eb}, !- Handle
  {87c3970f-a18e-439a-83b0-100525207164}, !- Material Name
  CEC Title24-2013,                       !- Material Standard
  ,                                       !- Material Standard Source
  Roofing,                                !- Standards Category
  25 PSF Roof - 2 1/2 in.;                !- Standards Identifier

OS:Material,
  {87d8ee0e-dc8f-4b46-bb1f-c991a893c061}, !- Handle
  3 Coat Stucco,                          !- Name
  MediumRough,                            !- Roughness
  0.022352,                               !- Thickness {m}
  0.631025859359008,                      !- Conductivity {W/m-K}
  1858.14175137938,                       !- Density {kg/m3}
  837.36,                                 !- Specific Heat {J/kg-K}
  ,                                       !- Thermal Absorptance
  0,                                      !- Solar Absorptance
  0;                                      !- Visible Absorptance

OS:StandardsInformation:Material,
  {983a9abb-d103-4091-8e53-4000bddeea31}, !- Handle
  {87d8ee0e-dc8f-4b46-bb1f-c991a893c061}, !- Material Name
  CEC Title24-2013,                       !- Material Standard
  ,                                       !- Material Standard Source
  Masonry Materials,                      !- Standards Category
  3 Coat Stucco;                          !- Standards Identifier

OS:Material,
  {82f9dc39-08cf-48cb-8740-f72cec5b0280}, !- Handle
  5 PSF Roof - 1/2 in.,                   !- Name
  VeryRough,                              !- Roughness
  0.0127,                                 !- Thickness {m}
  0.86571348011897,                       !- Conductivity {W/m-K}
  1922.21560487522,                       !- Density {kg/m3}
  837.36,                                 !- Specific Heat {J/kg-K}
  ,                                       !- Thermal Absorptance
  0,                                      !- Solar Absorptance
  0;                                      !- Visible Absorptance

OS:StandardsInformation:Material,
  {eab60e03-b54d-4d99-98e2-5e58f67f8d72}, !- Handle
  {82f9dc39-08cf-48cb-8740-f72cec5b0280}, !- Material Name
  CEC Title24-2013,                       !- Material Standard
  ,                                       !- Material Standard Source
  Roofing,                                !- Standards Category
  5 PSF Roof - 1/2 in.;                   !- Standards Identifier

OS:Material,
  {cdb1b83c-ff98-4e61-92a0-7569937829ae}, !- Handle
  Acoustic Tile - 1/2 in.,                !- Name
  MediumSmooth,                           !- Roughness
  0.0127,                                 !- Thickness {m}
  0.0576334643901673,                     !- Conductivity {W/m-K}
  288.332340731283,                       !- Density {kg/m3}
  795.492,                                !- Specific Heat {J/kg-K}
  ,                                       !- Thermal Absorptance
  0,                                      !- Solar Absorptance
  0;                                      !- Visible Absorptance

OS:StandardsInformation:Material,
  {cb2d7a70-26f8-4fac-bc82-8cf253386966}, !- Handle
  {cdb1b83c-ff98-4e61-92a0-7569937829ae}, !- Material Name
  CEC Title24-2013,                       !- Material Standard
  ,                                       !- Material Standard Source
  Finish Materials,                       !- Standards Category
  Acoustic Tile - 1/2 in.;                !- Standards Identifier

OS:Material,
  {18c2654e-275b-40f3-a9ba-18db4c03d9c0}, !- Handle
  Acoustic Tile - 3/4 in.,                !- Name
  MediumSmooth,                           !- Roughness
  0.01905,                                !- Thickness {m}
  0.0576334643901673,                     !- Conductivity {W/m-K}
  288.332340731283,                       !- Density {kg/m3}
  795.492,                                !- Specific Heat {J/kg-K}
  ,                                       !- Thermal Absorptance
  0,                                      !- Solar Absorptance
  0;                                      !- Visible Absorptance

OS:StandardsInformation:Material,
  {28a1b40d-0264-4756-8c06-ff9a07aec1be}, !- Handle
  {18c2654e-275b-40f3-a9ba-18db4c03d9c0}, !- Material Name
  CEC Title24-2013,                       !- Material Standard
  ,                                       !- Material Standard Source
  Finish Materials,                       !- Standards Category
  Acoustic Tile - 3/4 in.;                !- Standards Identifier

OS:Material,
  {a803daf7-f9f2-46fc-a73f-4bc07c319fbe}, !- Handle
  Acoustic Tile - 3/8 in.,                !- Name
  MediumSmooth,                           !- Roughness
  0.009652,                               !- Thickness {m}
  0.0562488766570702,                     !- Conductivity {W/m-K}
  288.332340731283,                       !- Density {kg/m3}
  795.492,                                !- Specific Heat {J/kg-K}
  ,                                       !- Thermal Absorptance
  0,                                      !- Solar Absorptance
  0;                                      !- Visible Absorptance

OS:StandardsInformation:Material,
  {26d5c10a-e3ff-45e5-8468-03c4d524eedd}, !- Handle
  {a803daf7-f9f2-46fc-a73f-4bc07c319fbe}, !- Material Name
  CEC Title24-2013,                       !- Material Standard
  ,                                       !- Material Standard Source
  Finish Materials,                       !- Standards Category
  Acoustic Tile - 3/8 in.;                !- Standards Identifier

OS:Material,
  {4f218c1b-0b61-479b-90cc-f93c8581464b}, !- Handle
  Aggregate - 45 lb/ft3 - 1/2 in.,        !- Name
  MediumSmooth,                           !- Roughness
  0.0127,                                 !- Thickness {m}
  0.224995506628281,                      !- Conductivity {W/m-K}
  720.830851828206,                       !- Density {kg/m3}
  1339.776,                               !- Specific Heat {J/kg-K}
  ,                                       !- Thermal Absorptance
  0,                                      !- Solar Absorptance
  0;                                      !- Visible Absorptance

OS:StandardsInformation:Material,
  {ddb8ddb2-8bee-4a4a-9bd4-2e1e1932326d}, !- Handle
  {4f218c1b-0b61-479b-90cc-f93c8581464b}, !- Material Name
  CEC Title24-2013,                       !- Material Standard
  ,                                       !- Material Standard Source
  Plastering Materials,                   !- Standards Category
  Aggregate - 45 lb/ft3 - 1/2 in.;        !- Standards Identifier

OS:Material,
  {2e5600f2-12c7-4ab2-85c2-2dda3bc18668}, !- Handle
  Aggregate - 45 lb/ft3 - 5/8 in.,        !- Name
  MediumSmooth,                           !- Roughness
  0.016002,                               !- Thickness {m}
  0.230706931027306,                      !- Conductivity {W/m-K}
  720.830851828206,                       !- Density {kg/m3}
  1339.776,                               !- Specific Heat {J/kg-K}
  ,                                       !- Thermal Absorptance
  0,                                      !- Solar Absorptance
  0;                                      !- Visible Absorptance

OS:StandardsInformation:Material,
  {324dc4cd-d123-41c7-8ad9-c01347673b60}, !- Handle
  {2e5600f2-12c7-4ab2-85c2-2dda3bc18668}, !- Material Name
  CEC Title24-2013,                       !- Material Standard
  ,                                       !- Material Standard Source
  Plastering Materials,                   !- Standards Category
  Aggregate - 45 lb/ft3 - 5/8 in.;        !- Standards Identifier

OS:Material,
  {088d344c-8b49-4df7-bfc2-f6848b183257}, !- Handle
  Aggregate - 45 lb/ft3 - on metal lath - 3/4 in., !- Name
  MediumSmooth,                           !- Roughness
  0.01905,                                !- Thickness {m}
  0.230706931027306,                      !- Conductivity {W/m-K}
  720.830851828206,                       !- Density {kg/m3}
  1339.776,                               !- Specific Heat {J/kg-K}
  ,                                       !- Thermal Absorptance
  0,                                      !- Solar Absorptance
  0;                                      !- Visible Absorptance

OS:StandardsInformation:Material,
  {38e41015-e7a7-47e3-8d87-aa349f86a1a7}, !- Handle
  {088d344c-8b49-4df7-bfc2-f6848b183257}, !- Material Name
  CEC Title24-2013,                       !- Material Standard
  ,                                       !- Material Standard Source
  Plastering Materials,                   !- Standards Category
  Aggregate - 45 lb/ft3 - on metal lath - 3/4 in.; !- Standards Identifier

OS:Material,
  {3a307c99-c38b-4afc-a03d-446c6da00864}, !- Handle
  Aggregate - Perlite - 1/2 in.,          !- Name
  Smooth,                                 !- Roughness
  0.0127,                                 !- Thickness {m}
  0.18743856436802,                       !- Conductivity {W/m-K}
  720.830851828206,                       !- Density {kg/m3}
  1339.776,                               !- Specific Heat {J/kg-K}
  ,                                       !- Thermal Absorptance
  0,                                      !- Solar Absorptance
  0;                                      !- Visible Absorptance

OS:StandardsInformation:Material,
  {f7641bb3-f5b7-4b81-9635-d9174f1407bc}, !- Handle
  {3a307c99-c38b-4afc-a03d-446c6da00864}, !- Material Name
  CEC Title24-2013,                       !- Material Standard
  ,                                       !- Material Standard Source
  Plastering Materials,                   !- Standards Category
  Aggregate - Perlite - 1/2 in.;          !- Standards Identifier

OS:Material,
  {4dd58353-e09c-4c3e-af93-4278b0e6d649}, !- Handle
  Aggregate - Perlite - 5/8 in.,          !- Name
  Smooth,                                 !- Roughness
  0.016002,                               !- Thickness {m}
  0.216341833296424,                      !- Conductivity {W/m-K}
  720.830851828206,                       !- Density {kg/m3}
  1339.776,                               !- Specific Heat {J/kg-K}
  ,                                       !- Thermal Absorptance
  0,                                      !- Solar Absorptance
  0;                                      !- Visible Absorptance

OS:StandardsInformation:Material,
  {92b704db-2b7d-4a94-b4eb-304e7acf4849}, !- Handle
  {4dd58353-e09c-4c3e-af93-4278b0e6d649}, !- Material Name
  CEC Title24-2013,                       !- Material Standard
  ,                                       !- Material Standard Source
  Plastering Materials,                   !- Standards Category
  Aggregate - Perlite - 5/8 in.;          !- Standards Identifier

OS:Material,
  {e20621ff-c4fd-4e4f-9458-aafe7166a597}, !- Handle
  Aggregate - Perlite - on metal lath - 3/4 in., !- Name
  Smooth,                                 !- Roughness
  0.01905,                                !- Thickness {m}
  0.245245102224826,                      !- Conductivity {W/m-K}
  720.830851828206,                       !- Density {kg/m3}
  1339.776,                               !- Specific Heat {J/kg-K}
  ,                                       !- Thermal Absorptance
  0,                                      !- Solar Absorptance
  0;                                      !- Visible Absorptance

OS:StandardsInformation:Material,
  {d8508d45-bfaf-45c7-97ac-c3183668663b}, !- Handle
  {e20621ff-c4fd-4e4f-9458-aafe7166a597}, !- Material Name
  CEC Title24-2013,                       !- Material Standard
  ,                                       !- Material Standard Source
  Plastering Materials,                   !- Standards Category
  Aggregate - Perlite - on metal lath - 3/4 in.; !- Standards Identifier

OS:Material,
  {8fa3fd41-170a-4f50-b362-20914108fdd9}, !- Handle
  Air - Cavity - Wall Roof Ceiling - 4 in. or more, !- Name
  ,                                       !- Roughness
  0.1524,                                 !- Thickness {m}
  0.940308144239577,                      !- Conductivity {W/m-K}
  1.28147706991681,                       !- Density {kg/m3}
  1004.832,                               !- Specific Heat {J/kg-K}
  ,                                       !- Thermal Absorptance
  0,                                      !- Solar Absorptance
  0;                                      !- Visible Absorptance

OS:StandardsInformation:Material,
  {3c308c86-8f28-4b2e-b821-4f1294e11c56}, !- Handle
  {8fa3fd41-170a-4f50-b362-20914108fdd9}, !- Material Name
  CEC Title24-2013,                       !- Material Standard
  ,                                       !- Material Standard Source
  Air,                                    !- Standards Category
  Air - Cavity - Wall Roof Ceiling - 4 in. or more; !- Standards Identifier

OS:Material,
  {30ff743a-a4d2-436e-927b-098f57c096d6}, !- Handle
  Air - Ceiling - 1 1/2 in.,              !- Name
  ,                                       !- Roughness
  0.0381,                                 !- Thickness {m}
  0.281244383285351,                      !- Conductivity {W/m-K}
  1.28147706991681,                       !- Density {kg/m3}
  1004.832,                               !- Specific Heat {J/kg-K}
  ,                                       !- Thermal Absorptance
  0,                                      !- Solar Absorptance
  0;                                      !- Visible Absorptance

OS:StandardsInformation:Material,
  {d5762d5e-b07e-4b3d-bd67-24d95d6148d4}, !- Handle
  {30ff743a-a4d2-436e-927b-098f57c096d6}, !- Material Name
  CEC Title24-2013,                       !- Material Standard
  ,                                       !- Material Standard Source
  Air,                                    !- Standards Category
  Air - Ceiling - 1 1/2 in.;              !- Standards Identifier

OS:Material,
  {fb78d735-e733-4b3d-a689-c392fb818492}, !- Handle
  Air - Ceiling - 1/2 in.,                !- Name
  ,                                       !- Roughness
  0.0127,                                 !- Thickness {m}
  0.0981326555832579,                     !- Conductivity {W/m-K}
  1.28147706991681,                       !- Density {kg/m3}
  1004.832,                               !- Specific Heat {J/kg-K}
  ,                                       !- Thermal Absorptance
  0,                                      !- Solar Absorptance
  0;                                      !- Visible Absorptance

OS:StandardsInformation:Material,
  {96187e31-74f6-45e7-915b-9342f5541ab5}, !- Handle
  {fb78d735-e733-4b3d-a689-c392fb818492}, !- Material Name
  CEC Title24-2013,                       !- Material Standard
  ,                                       !- Material Standard Source
  Air,                                    !- Standards Category
  Air - Ceiling - 1/2 in.;                !- Standards Identifier

OS:Material,
  {aec22bc6-c604-40e5-b26b-878277efb18b}, !- Handle
  Air - Ceiling - 3 1/2 in.,              !- Name
  ,                                       !- Roughness
  0.0889,                                 !- Thickness {m}
  0.631718153225558,                      !- Conductivity {W/m-K}
  1.28147706991681,                       !- Density {kg/m3}
  1004.832,                               !- Specific Heat {J/kg-K}
  ,                                       !- Thermal Absorptance
  0,                                      !- Solar Absorptance
  0;                                      !- Visible Absorptance

OS:StandardsInformation:Material,
  {81b3c736-47f6-404a-b27a-333b7e774d96}, !- Handle
  {aec22bc6-c604-40e5-b26b-878277efb18b}, !- Material Name
  CEC Title24-2013,                       !- Material Standard
  ,                                       !- Material Standard Source
  Air,                                    !- Standards Category
  Air - Ceiling - 3 1/2 in.;              !- Standards Identifier

OS:Material,
  {218d6180-620e-44ae-ab44-16635c23bb28}, !- Handle
  Air - Ceiling - 3/4 in.,                !- Name
  ,                                       !- Roughness
  0.01905,                                !- Thickness {m}
  0.144170197708737,                      !- Conductivity {W/m-K}
  1.28147706991681,                       !- Density {kg/m3}
  1004.832,                               !- Specific Heat {J/kg-K}
  ,                                       !- Thermal Absorptance
  0,                                      !- Solar Absorptance
  0;                                      !- Visible Absorptance

OS:StandardsInformation:Material,
  {cb00df77-6ccc-4ca1-bb2e-a5fc343d5d41}, !- Handle
  {218d6180-620e-44ae-ab44-16635c23bb28}, !- Material Name
  CEC Title24-2013,                       !- Material Standard
  ,                                       !- Material Standard Source
  Air,                                    !- Standards Category
  Air - Ceiling - 3/4 in.;                !- Standards Identifier

OS:Material,
  {046e45d7-7750-4b13-ba8d-f7d02dd09ed5}, !- Handle
  Air - Floor - 1 1/2 in.,                !- Name
  ,                                       !- Roughness
  0.0381,                                 !- Thickness {m}
  0.230706931027306,                      !- Conductivity {W/m-K}
  1.28147706991681,                       !- Density {kg/m3}
  1004.832,                               !- Specific Heat {J/kg-K}
  ,                                       !- Thermal Absorptance
  0,                                      !- Solar Absorptance
  0;                                      !- Visible Absorptance

OS:StandardsInformation:Material,
  {028706e0-d268-4562-8195-ca4db63db9dd}, !- Handle
  {046e45d7-7750-4b13-ba8d-f7d02dd09ed5}, !- Material Name
  CEC Title24-2013,                       !- Material Standard
  ,                                       !- Material Standard Source
  Air,                                    !- Standards Category
  Air - Floor - 1 1/2 in.;                !- Standards Identifier

OS:Material,
  {0635980d-8593-4210-bbd0-5b6a896ccf24}, !- Handle
  Air - Floor - 1/2 in.,                  !- Name
  ,                                       !- Roughness
  0.0127,                                 !- Thickness {m}
  0.0938058189173294,                     !- Conductivity {W/m-K}
  1.28147706991681,                       !- Density {kg/m3}
  1004.832,                               !- Specific Heat {J/kg-K}
  ,                                       !- Thermal Absorptance
  0,                                      !- Solar Absorptance
  0;                                      !- Visible Absorptance

OS:StandardsInformation:Material,
  {54cdb385-80c0-4d84-93f1-43937a2b51c6}, !- Handle
  {0635980d-8593-4210-bbd0-5b6a896ccf24}, !- Material Name
  CEC Title24-2013,                       !- Material Standard
  ,                                       !- Material Standard Source
  Air,                                    !- Standards Category
  Air - Floor - 1/2 in.;                  !- Standards Identifier

OS:Material,
  {d43abedf-753a-41c5-84f2-dcba5e525236}, !- Handle
  Air - Floor - 3 1/2 in.,                !- Name
  ,                                       !- Roughness
  0.0889,                                 !- Thickness {m}
  0.504855302180535,                      !- Conductivity {W/m-K}
  1.28147706991681,                       !- Density {kg/m3}
  1004.832,                               !- Specific Heat {J/kg-K}
  ,                                       !- Thermal Absorptance
  0,                                      !- Solar Absorptance
  0;                                      !- Visible Absorptance

OS:StandardsInformation:Material,
  {c7581aad-dab2-4536-9393-4e9c7021f6bd}, !- Handle
  {d43abedf-753a-41c5-84f2-dcba5e525236}, !- Material Name
  CEC Title24-2013,                       !- Material Standard
  ,                                       !- Material Standard Source
  Air,                                    !- Standards Category
  Air - Floor - 3 1/2 in.;                !- Standards Identifier

OS:Material,
  {a87c1a85-220d-41c4-8bdb-5d12eb7643ee}, !- Handle
  Air - Floor - 3/4 in.,                  !- Name
  ,                                       !- Roughness
  0.01905,                                !- Thickness {m}
  0.126862851045023,                      !- Conductivity {W/m-K}
  1.28147706991681,                       !- Density {kg/m3}
  1004.832,                               !- Specific Heat {J/kg-K}
  ,                                       !- Thermal Absorptance
  0,                                      !- Solar Absorptance
  0;                                      !- Visible Absorptance

OS:StandardsInformation:Material,
  {b8030b16-e80a-4d6f-ac15-554167372173}, !- Handle
  {a87c1a85-220d-41c4-8bdb-5d12eb7643ee}, !- Material Name
  CEC Title24-2013,                       !- Material Standard
  ,                                       !- Material Standard Source
  Air,                                    !- Standards Category
  Air - Floor - 3/4 in.;                  !- Standards Identifier

OS:Material,
  {b5b0cb79-2f8a-41b6-8f58-8f0a98149bff}, !- Handle
  Air - Metal Wall Framing - 16 or 24 in. OC, !- Name
  ,                                       !- Roughness
  0.1397,                                 !- Thickness {m}
  1.22016793979183,                       !- Conductivity {W/m-K}
  1.28147706991681,                       !- Density {kg/m3}
  1004.832,                               !- Specific Heat {J/kg-K}
  ,                                       !- Thermal Absorptance
  0,                                      !- Solar Absorptance
  0;                                      !- Visible Absorptance

OS:StandardsInformation:Material,
  {cae2823b-76fd-4d4c-b10a-089723b72b18}, !- Handle
  {b5b0cb79-2f8a-41b6-8f58-8f0a98149bff}, !- Material Name
  CEC Title24-2013,                       !- Material Standard
  ,                                       !- Material Standard Source
  Air,                                    !- Standards Category
  Air - Metal Wall Framing - 16 or 24 in. OC; !- Standards Identifier

OS:Material,
  {15ffdcab-ef91-4a5b-a84c-35032d37a0a7}, !- Handle
  Air - Roof - 1 1/2 in.,                 !- Name
  ,                                       !- Roughness
  0.0381,                                 !- Thickness {m}
  0.271206122220397,                      !- Conductivity {W/m-K}
  1.28147706991681,                       !- Density {kg/m3}
  1004.832,                               !- Specific Heat {J/kg-K}
  ,                                       !- Thermal Absorptance
  0,                                      !- Solar Absorptance
  0;                                      !- Visible Absorptance

OS:StandardsInformation:Material,
  {76240471-20a2-4b59-a2f5-4d8183609654}, !- Handle
  {15ffdcab-ef91-4a5b-a84c-35032d37a0a7}, !- Material Name
  CEC Title24-2013,                       !- Material Standard
  ,                                       !- Material Standard Source
  Air,                                    !- Standards Category
  Air - Roof - 1 1/2 in.;                 !- Standards Identifier

OS:Material,
  {707c7bed-33fa-4905-9c0f-8383c2c94ced}, !- Handle
  Air - Roof - 1/2 in.,                   !- Name
  ,                                       !- Roughness
  0.0127,                                 !- Thickness {m}
  0.0951904066504265,                     !- Conductivity {W/m-K}
  1.28147706991681,                       !- Density {kg/m3}
  1004.832,                               !- Specific Heat {J/kg-K}
  ,                                       !- Thermal Absorptance
  0,                                      !- Solar Absorptance
  0;                                      !- Visible Absorptance

OS:StandardsInformation:Material,
  {5b8d82e3-ea85-4068-9f52-6eb82cf8a575}, !- Handle
  {707c7bed-33fa-4905-9c0f-8383c2c94ced}, !- Material Name
  CEC Title24-2013,                       !- Material Standard
  ,                                       !- Material Standard Source
  Air,                                    !- Standards Category
  Air - Roof - 1/2 in.;                   !- Standards Identifier

OS:Material,
  {a97a91fb-fc56-423b-b473-ad8b0b285086}, !- Handle
  Air - Roof - 3 1/2 in.,                 !- Name
  ,                                       !- Roughness
  0.0889,                                 !- Thickness {m}
  0.615795394294941,                      !- Conductivity {W/m-K}
  1.28147706991681,                       !- Density {kg/m3}
  1004.832,                               !- Specific Heat {J/kg-K}
  ,                                       !- Thermal Absorptance
  0,                                      !- Solar Absorptance
  0;                                      !- Visible Absorptance

OS:StandardsInformation:Material,
  {50bf6ce5-d736-4bdd-9bcb-dae6c9c6e208}, !- Handle
  {a97a91fb-fc56-423b-b473-ad8b0b285086}, !- Material Name
  CEC Title24-2013,                       !- Material Standard
  ,                                       !- Material Standard Source
  Air,                                    !- Standards Category
  Air - Roof - 3 1/2 in.;                 !- Standards Identifier

OS:Material,
  {ce9f82ff-a040-48a4-8351-d61d61ed4bdd}, !- Handle
  Air - Roof - 3/4 in.,                   !- Name
  ,                                       !- Roughness
  0.01905,                                !- Thickness {m}
  0.134131936643783,                      !- Conductivity {W/m-K}
  1.28147706991681,                       !- Density {kg/m3}
  1004.832,                               !- Specific Heat {J/kg-K}
  ,                                       !- Thermal Absorptance
  0,                                      !- Solar Absorptance
  0;                                      !- Visible Absorptance

OS:StandardsInformation:Material,
  {62237773-b03d-42fc-b554-393f1552bbc8}, !- Handle
  {ce9f82ff-a040-48a4-8351-d61d61ed4bdd}, !- Material Name
  CEC Title24-2013,                       !- Material Standard
  ,                                       !- Material Standard Source
  Air,                                    !- Standards Category
  Air - Roof - 3/4 in.;                   !- Standards Identifier

OS:Material,
  {1c8f4936-f90e-4a4d-8ca2-4d6be4ad5c5d}, !- Handle
  Air - Wall - 1 1/2 in.,                 !- Name
  ,                                       !- Roughness
  0.0381,                                 !- Thickness {m}
  0.24801427769102,                       !- Conductivity {W/m-K}
  1.28147706991681,                       !- Density {kg/m3}
  1004.832,                               !- Specific Heat {J/kg-K}
  ,                                       !- Thermal Absorptance
  0,                                      !- Solar Absorptance
  0;                                      !- Visible Absorptance

OS:StandardsInformation:Material,
  {181a9369-1617-4872-9110-9df731e86772}, !- Handle
  {1c8f4936-f90e-4a4d-8ca2-4d6be4ad5c5d}, !- Material Name
  CEC Title24-2013,                       !- Material Standard
  ,                                       !- Material Standard Source
  Air,                                    !- Standards Category
  Air - Wall - 1 1/2 in.;                 !- Standards Identifier

OS:Material,