
OS:Version,
  {ca38b873-5f3e-48ae-81c4-25cb3e498517}, !- Handle
  2.3.0;                                  !- Version Identifier

OS:Material,
  {4934083c-1483-4ea4-9f66-386fa45f9231}, !- Handle
  10 PSF Roof - 1 in.,                    !- Name
  VeryRough,                              !- Roughness
  0.0254,                                 !- Thickness {m}
  1.73142696023794,                       !- Conductivity {W/m-K}
  1922.21560487522,                       !- Density {kg/m3}
  837.36,                                 !- Specific Heat {J/kg-K}
  ,                                       !- Thermal Absorptance
  0,                                      !- Solar Absorptance
  0;                                      !- Visible Absorptance

OS:StandardsInformation:Material,
  {ddb25e6e-075a-4572-aa20-b2377e527313}, !- Handle
  {4934083c-1483-4ea4-9f66-386fa45f9231}, !- Material Name
  CEC Title24-2013,                       !- Material Standard
  ,                                       !- Material Standard Source
  Roofing,                                !- Standards Category
  10 PSF Roof - 1 in.,                    !- Standards Identifier
  ,                                       !- Composite Framing Material
  ,                                       !- Composite Framing Configuration
  ,                                       !- Composite Framing Depth
  ,                                       !- Composite Framing Size
  ;                                       !- Composite Cavity Insulation

OS:Material,
  {31134d72-a035-4aaa-9a1f-ff86172831a4}, !- Handle
  15 PSF Roof - 1 1/2 in.,                !- Name
  VeryRough,                              !- Roughness
  0.0381,                                 !- Thickness {m}
  2.59714044035689,                       !- Conductivity {W/m-K}
  1922.21560487522,                       !- Density {kg/m3}
  837.36,                                 !- Specific Heat {J/kg-K}
  ,                                       !- Thermal Absorptance
  0,                                      !- Solar Absorptance
  0;                                      !- Visible Absorptance

OS:StandardsInformation:Material,
  {1301bf66-eaf4-4b47-8d80-07231555dfad}, !- Handle
  {31134d72-a035-4aaa-9a1f-ff86172831a4}, !- Material Name
  CEC Title24-2013,                       !- Material Standard
  ,                                       !- Material Standard Source
  Roofing,                                !- Standards Category
  15 PSF Roof - 1 1/2 in.,                !- Standards Identifier
  ,                                       !- Composite Framing Material
  ,                                       !- Composite Framing Configuration
  ,                                       !- Composite Framing Depth
  ,                                       !- Composite Framing Size
  ;                                       !- Composite Cavity Insulation

OS:Material,
  {e4aaefcd-11d7-4fef-bde2-44aab04f396f}, !- Handle
  25 PSF Roof - 2 1/2 in.,                !- Name
  VeryRough,                              !- Roughness
  0.0635,                                 !- Thickness {m}
  4.32856740059485,                       !- Conductivity {W/m-K}
  1922.21560487522,                       !- Density {kg/m3}
  837.36,                                 !- Specific Heat {J/kg-K}
  ,                                       !- Thermal Absorptance
  0,                                      !- Solar Absorptance
  0;                                      !- Visible Absorptance

OS:StandardsInformation:Material,
  {37bbaf07-7443-41c7-9f71-0af3a31815b9}, !- Handle
  {e4aaefcd-11d7-4fef-bde2-44aab04f396f}, !- Material Name
  CEC Title24-2013,                       !- Material Standard
  ,                                       !- Material Standard Source
  Roofing,                                !- Standards Category
  25 PSF Roof - 2 1/2 in.,                !- Standards Identifier
  ,                                       !- Composite Framing Material
  ,                                       !- Composite Framing Configuration
  ,                                       !- Composite Framing Depth
  ,                                       !- Composite Framing Size
  ;                                       !- Composite Cavity Insulation

OS:Material,
  {bd2ba6dc-bbaa-4c6b-9f0a-d12a3aea54ab}, !- Handle
  3 Coat Stucco,                          !- Name
  MediumRough,                            !- Roughness
  0.022352,                               !- Thickness {m}
  0.631025859359008,                      !- Conductivity {W/m-K}
  1858.14175137938,                       !- Density {kg/m3}
  837.36,                                 !- Specific Heat {J/kg-K}
  ,                                       !- Thermal Absorptance
  0,                                      !- Solar Absorptance
  0;                                      !- Visible Absorptance

OS:StandardsInformation:Material,
  {9afacd62-d145-477f-b4be-eb2ded3846ed}, !- Handle
  {bd2ba6dc-bbaa-4c6b-9f0a-d12a3aea54ab}, !- Material Name
  CEC Title24-2013,                       !- Material Standard
  ,                                       !- Material Standard Source
  Masonry Materials,                      !- Standards Category
  3 Coat Stucco,                          !- Standards Identifier
  ,                                       !- Composite Framing Material
  ,                                       !- Composite Framing Configuration
  ,                                       !- Composite Framing Depth
  ,                                       !- Composite Framing Size
  ;                                       !- Composite Cavity Insulation

OS:Material,
  {9addd203-0275-4a5f-b54f-fa990cf65109}, !- Handle
  5 PSF Roof - 1/2 in.,                   !- Name
  VeryRough,                              !- Roughness
  0.0127,                                 !- Thickness {m}
  0.86571348011897,                       !- Conductivity {W/m-K}
  1922.21560487522,                       !- Density {kg/m3}
  837.36,                                 !- Specific Heat {J/kg-K}
  ,                                       !- Thermal Absorptance
  0,                                      !- Solar Absorptance
  0;                                      !- Visible Absorptance

OS:StandardsInformation:Material,
  {dc1353b5-17f7-41e9-8b85-f0eda51f4cf7}, !- Handle
  {9addd203-0275-4a5f-b54f-fa990cf65109}, !- Material Name
  CEC Title24-2013,                       !- Material Standard
  ,                                       !- Material Standard Source
  Roofing,                                !- Standards Category
  5 PSF Roof - 1/2 in.,                   !- Standards Identifier
  ,                                       !- Composite Framing Material
  ,                                       !- Composite Framing Configuration
  ,                                       !- Composite Framing Depth
  ,                                       !- Composite Framing Size
  ;                                       !- Composite Cavity Insulation

OS:Material,
  {3a507d78-2abc-43c0-a113-9b82e04065c4}, !- Handle
  Acoustic Tile - 1/2 in.,                !- Name
  MediumSmooth,                           !- Roughness
  0.0127,                                 !- Thickness {m}
  0.0576334643901673,                     !- Conductivity {W/m-K}
  288.332340731283,                       !- Density {kg/m3}
  795.492,                                !- Specific Heat {J/kg-K}
  ,                                       !- Thermal Absorptance
  0,                                      !- Solar Absorptance
  0;                                      !- Visible Absorptance

OS:StandardsInformation:Material,
  {281d39ee-09b9-4256-bd62-cc090f004595}, !- Handle
  {3a507d78-2abc-43c0-a113-9b82e04065c4}, !- Material Name
  CEC Title24-2013,                       !- Material Standard
  ,                                       !- Material Standard Source
  Finish Materials,                       !- Standards Category
  Acoustic Tile - 1/2 in.,                !- Standards Identifier
  ,                                       !- Composite Framing Material
  ,                                       !- Composite Framing Configuration
  ,                                       !- Composite Framing Depth
  ,                                       !- Composite Framing Size
  ;                                       !- Composite Cavity Insulation

OS:Material,
  {137ad376-36d5-445d-b892-2cc7f989304f}, !- Handle
  Acoustic Tile - 3/4 in.,                !- Name
  MediumSmooth,                           !- Roughness
  0.01905,                                !- Thickness {m}
  0.0576334643901673,                     !- Conductivity {W/m-K}
  288.332340731283,                       !- Density {kg/m3}
  795.492,                                !- Specific Heat {J/kg-K}
  ,                                       !- Thermal Absorptance
  0,                                      !- Solar Absorptance
  0;                                      !- Visible Absorptance

OS:StandardsInformation:Material,
  {c7ab2e2a-caa9-47af-b8c1-426d815342ee}, !- Handle
  {137ad376-36d5-445d-b892-2cc7f989304f}, !- Material Name
  CEC Title24-2013,                       !- Material Standard
  ,                                       !- Material Standard Source
  Finish Materials,                       !- Standards Category
  Acoustic Tile - 3/4 in.,                !- Standards Identifier
  ,                                       !- Composite Framing Material
  ,                                       !- Composite Framing Configuration
  ,                                       !- Composite Framing Depth
  ,                                       !- Composite Framing Size
  ;                                       !- Composite Cavity Insulation

OS:Material,
  {23f92d08-1399-4704-b3af-2036069c9d12}, !- Handle
  Acoustic Tile - 3/8 in.,                !- Name
  MediumSmooth,                           !- Roughness
  0.009652,                               !- Thickness {m}
  0.0562488766570702,                     !- Conductivity {W/m-K}
  288.332340731283,                       !- Density {kg/m3}
  795.492,                                !- Specific Heat {J/kg-K}
  ,                                       !- Thermal Absorptance
  0,                                      !- Solar Absorptance
  0;                                      !- Visible Absorptance

OS:StandardsInformation:Material,
  {069d2076-e605-49d7-9ca1-abc433a2bddc}, !- Handle
  {23f92d08-1399-4704-b3af-2036069c9d12}, !- Material Name
  CEC Title24-2013,                       !- Material Standard
  ,                                       !- Material Standard Source
  Finish Materials,                       !- Standards Category
  Acoustic Tile - 3/8 in.,                !- Standards Identifier
  ,                                       !- Composite Framing Material
  ,                                       !- Composite Framing Configuration
  ,                                       !- Composite Framing Depth
  ,                                       !- Composite Framing Size
  ;                                       !- Composite Cavity Insulation

OS:Material,
  {ba348960-0914-412e-bec6-b634ce0881c2}, !- Handle
  Aggregate - 45 lb/ft3 - 1/2 in.,        !- Name
  MediumSmooth,                           !- Roughness
  0.0127,                                 !- Thickness {m}
  0.224995506628281,                      !- Conductivity {W/m-K}
  720.830851828206,                       !- Density {kg/m3}
  1339.776,                               !- Specific Heat {J/kg-K}
  ,                                       !- Thermal Absorptance
  0,                                      !- Solar Absorptance
  0;                                      !- Visible Absorptance

OS:StandardsInformation:Material,
  {7c56eaa7-b8ce-4525-8b9b-2938d080d9ed}, !- Handle
  {ba348960-0914-412e-bec6-b634ce0881c2}, !- Material Name
  CEC Title24-2013,                       !- Material Standard
  ,                                       !- Material Standard Source
  Plastering Materials,                   !- Standards Category
  Aggregate - 45 lb/ft3 - 1/2 in.,        !- Standards Identifier
  ,                                       !- Composite Framing Material
  ,                                       !- Composite Framing Configuration
  ,                                       !- Composite Framing Depth
  ,                                       !- Composite Framing Size
  ;                                       !- Composite Cavity Insulation

OS:Material,
  {f7fa5391-d4d7-43d4-80c1-c40026f817c8}, !- Handle
  Aggregate - 45 lb/ft3 - 5/8 in.,        !- Name
  MediumSmooth,                           !- Roughness
  0.016002,                               !- Thickness {m}
  0.230706931027306,                      !- Conductivity {W/m-K}
  720.830851828206,                       !- Density {kg/m3}
  1339.776,                               !- Specific Heat {J/kg-K}
  ,                                       !- Thermal Absorptance
  0,                                      !- Solar Absorptance
  0;                                      !- Visible Absorptance

OS:StandardsInformation:Material,
  {9151f83e-e425-467b-bd1c-71ceec093302}, !- Handle
  {f7fa5391-d4d7-43d4-80c1-c40026f817c8}, !- Material Name
  CEC Title24-2013,                       !- Material Standard
  ,                                       !- Material Standard Source
  Plastering Materials,                   !- Standards Category
  Aggregate - 45 lb/ft3 - 5/8 in.,        !- Standards Identifier
  ,                                       !- Composite Framing Material
  ,                                       !- Composite Framing Configuration
  ,                                       !- Composite Framing Depth
  ,                                       !- Composite Framing Size
  ;                                       !- Composite Cavity Insulation

OS:Material,
  {6b4b955a-6e39-4f49-9f11-a88eaac35f6d}, !- Handle
  Aggregate - 45 lb/ft3 - on metal lath - 3/4 in., !- Name
  MediumSmooth,                           !- Roughness
  0.01905,                                !- Thickness {m}
  0.230706931027306,                      !- Conductivity {W/m-K}
  720.830851828206,                       !- Density {kg/m3}
  1339.776,                               !- Specific Heat {J/kg-K}
  ,                                       !- Thermal Absorptance
  0,                                      !- Solar Absorptance
  0;                                      !- Visible Absorptance

OS:StandardsInformation:Material,
  {9cd3fb7c-7348-40be-9659-3ee91d0a5ff3}, !- Handle
  {6b4b955a-6e39-4f49-9f11-a88eaac35f6d}, !- Material Name
  CEC Title24-2013,                       !- Material Standard
  ,                                       !- Material Standard Source
  Plastering Materials,                   !- Standards Category
  Aggregate - 45 lb/ft3 - on metal lath - 3/4 in., !- Standards Identifier
  ,                                       !- Composite Framing Material
  ,                                       !- Composite Framing Configuration
  ,                                       !- Composite Framing Depth
  ,                                       !- Composite Framing Size
  ;                                       !- Composite Cavity Insulation

OS:Material,
  {37204240-f556-4bb4-aa6f-0ddd870391ed}, !- Handle
  Aggregate - Perlite - 1/2 in.,          !- Name
  Smooth,                                 !- Roughness
  0.0127,                                 !- Thickness {m}
  0.18743856436802,                       !- Conductivity {W/m-K}
  720.830851828206,                       !- Density {kg/m3}
  1339.776,                               !- Specific Heat {J/kg-K}
  ,                                       !- Thermal Absorptance
  0,                                      !- Solar Absorptance
  0;                                      !- Visible Absorptance

OS:StandardsInformation:Material,
  {fc96e960-a07a-4e6c-a687-a3a7d40d8de9}, !- Handle
  {37204240-f556-4bb4-aa6f-0ddd870391ed}, !- Material Name
  CEC Title24-2013,                       !- Material Standard
  ,                                       !- Material Standard Source
  Plastering Materials,                   !- Standards Category
  Aggregate - Perlite - 1/2 in.,          !- Standards Identifier
  ,                                       !- Composite Framing Material
  ,                                       !- Composite Framing Configuration
  ,                                       !- Composite Framing Depth
  ,                                       !- Composite Framing Size
  ;                                       !- Composite Cavity Insulation

OS:Material,
  {25766fc4-32f1-40c1-b86d-8057ae1de506}, !- Handle
  Aggregate - Perlite - 5/8 in.,          !- Name
  Smooth,                                 !- Roughness
  0.016002,                               !- Thickness {m}
  0.216341833296424,                      !- Conductivity {W/m-K}
  720.830851828206,                       !- Density {kg/m3}
  1339.776,                               !- Specific Heat {J/kg-K}
  ,                                       !- Thermal Absorptance
  0,                                      !- Solar Absorptance
  0;                                      !- Visible Absorptance

OS:StandardsInformation:Material,
  {8acb4bb1-1911-4c97-a01b-5498a78a6082}, !- Handle
  {25766fc4-32f1-40c1-b86d-8057ae1de506}, !- Material Name
  CEC Title24-2013,                       !- Material Standard
  ,                                       !- Material Standard Source
  Plastering Materials,                   !- Standards Category
  Aggregate - Perlite - 5/8 in.,          !- Standards Identifier
  ,                                       !- Composite Framing Material
  ,                                       !- Composite Framing Configuration
  ,                                       !- Composite Framing Depth
  ,                                       !- Composite Framing Size
  ;                                       !- Composite Cavity Insulation

OS:Material,
  {be7e2b26-07fd-4b63-8422-f9746cfb218f}, !- Handle
  Aggregate - Perlite - on metal lath - 3/4 in., !- Name
  Smooth,                                 !- Roughness
  0.01905,                                !- Thickness {m}
  0.245245102224826,                      !- Conductivity {W/m-K}
  720.830851828206,                       !- Density {kg/m3}
  1339.776,                               !- Specific Heat {J/kg-K}
  ,                                       !- Thermal Absorptance
  0,                                      !- Solar Absorptance
  0;                                      !- Visible Absorptance

OS:StandardsInformation:Material,
  {d0d8d5ed-adf5-483f-a290-9e4b7060943f}, !- Handle
  {be7e2b26-07fd-4b63-8422-f9746cfb218f}, !- Material Name
  CEC Title24-2013,                       !- Material Standard
  ,                                       !- Material Standard Source
  Plastering Materials,                   !- Standards Category
  Aggregate - Perlite - on metal lath - 3/4 in., !- Standards Identifier
  ,                                       !- Composite Framing Material
  ,                                       !- Composite Framing Configuration
  ,                                       !- Composite Framing Depth
  ,                                       !- Composite Framing Size
  ;                                       !- Composite Cavity Insulation

OS:Material,
  {22f8e67d-58e9-4aed-9adc-8fdd29179bfd}, !- Handle
  Air - Cavity - Wall Roof Ceiling - 4 in. or more, !- Name
  Smooth,                                 !- Roughness
  0.1524,                                 !- Thickness {m}
  0.940308144239577,                      !- Conductivity {W/m-K}
  1.28147706991681,                       !- Density {kg/m3}
  1004.832,                               !- Specific Heat {J/kg-K}
  ,                                       !- Thermal Absorptance
  0,                                      !- Solar Absorptance
  0;                                      !- Visible Absorptance

OS:StandardsInformation:Material,
  {bf3839e1-cdf8-43d8-94c7-67b02f0b9988}, !- Handle
  {22f8e67d-58e9-4aed-9adc-8fdd29179bfd}, !- Material Name
  CEC Title24-2013,                       !- Material Standard
  ,                                       !- Material Standard Source
  Air,                                    !- Standards Category
  Air - Cavity - Wall Roof Ceiling - 4 in. or more, !- Standards Identifier
  ,                                       !- Composite Framing Material
  ,                                       !- Composite Framing Configuration
  ,                                       !- Composite Framing Depth
  ,                                       !- Composite Framing Size
  ;                                       !- Composite Cavity Insulation

OS:Material,
  {3e4c0957-776a-4a92-b473-e855d2a30fa3}, !- Handle
  Air - Ceiling - 1 1/2 in.,              !- Name
  Smooth,                                 !- Roughness
  0.0381,                                 !- Thickness {m}
  0.281244383285351,                      !- Conductivity {W/m-K}
  1.28147706991681,                       !- Density {kg/m3}
  1004.832,                               !- Specific Heat {J/kg-K}
  ,                                       !- Thermal Absorptance
  0,                                      !- Solar Absorptance
  0;                                      !- Visible Absorptance

OS:StandardsInformation:Material,
  {08adeea1-3667-4faf-9b83-473f13a1e6f7}, !- Handle
  {3e4c0957-776a-4a92-b473-e855d2a30fa3}, !- Material Name
  CEC Title24-2013,                       !- Material Standard
  ,                                       !- Material Standard Source
  Air,                                    !- Standards Category
  Air - Ceiling - 1 1/2 in.,              !- Standards Identifier
  ,                                       !- Composite Framing Material
  ,                                       !- Composite Framing Configuration
  ,                                       !- Composite Framing Depth
  ,                                       !- Composite Framing Size
  ;                                       !- Composite Cavity Insulation

OS:Material,
  {3585e190-8f73-44ed-ac7c-9c14e1e3f746}, !- Handle
  Air - Ceiling - 1/2 in.,                !- Name
  Smooth,                                 !- Roughness
  0.0127,                                 !- Thickness {m}
  0.0981326555832579,                     !- Conductivity {W/m-K}
  1.28147706991681,                       !- Density {kg/m3}
  1004.832,                               !- Specific Heat {J/kg-K}
  ,                                       !- Thermal Absorptance
  0,                                      !- Solar Absorptance
  0;                                      !- Visible Absorptance

OS:StandardsInformation:Material,
  {62a8f8d7-889f-4345-bac2-a17d82bf1f25}, !- Handle
  {3585e190-8f73-44ed-ac7c-9c14e1e3f746}, !- Material Name
  CEC Title24-2013,                       !- Material Standard
  ,                                       !- Material Standard Source
  Air,                                    !- Standards Category
  Air - Ceiling - 1/2 in.,                !- Standards Identifier
  ,                                       !- Composite Framing Material
  ,                                       !- Composite Framing Configuration
  ,                                       !- Composite Framing Depth
  ,                                       !- Composite Framing Size
  ;                                       !- Composite Cavity Insulation

OS:Material,
  {d0722503-4a4c-47d2-bd21-9c1aaa3bf24f}, !- Handle
  Air - Ceiling - 3 1/2 in.,              !- Name
  Smooth,                                 !- Roughness
  0.0889,                                 !- Thickness {m}
  0.631718153225558,                      !- Conductivity {W/m-K}
  1.28147706991681,                       !- Density {kg/m3}
  1004.832,                               !- Specific Heat {J/kg-K}
  ,                                       !- Thermal Absorptance
  0,                                      !- Solar Absorptance
  0;                                      !- Visible Absorptance

OS:StandardsInformation:Material,
  {70941ded-b65f-48d0-9c34-85cfc5f7d6dd}, !- Handle
  {d0722503-4a4c-47d2-bd21-9c1aaa3bf24f}, !- Material Name
  CEC Title24-2013,                       !- Material Standard
  ,                                       !- Material Standard Source
  Air,                                    !- Standards Category
  Air - Ceiling - 3 1/2 in.,              !- Standards Identifier
  ,                                       !- Composite Framing Material
  ,                                       !- Composite Framing Configuration
  ,                                       !- Composite Framing Depth
  ,                                       !- Composite Framing Size
  ;                                       !- Composite Cavity Insulation

OS:Material,
  {881cca3a-82d7-4e59-99b3-76cd951fe93b}, !- Handle
  Air - Ceiling - 3/4 in.,                !- Name
  Smooth,                                 !- Roughness
  0.01905,                                !- Thickness {m}
  0.144170197708737,                      !- Conductivity {W/m-K}
  1.28147706991681,                       !- Density {kg/m3}
  1004.832,                               !- Specific Heat {J/kg-K}
  ,                                       !- Thermal Absorptance
  0,                                      !- Solar Absorptance
  0;                                      !- Visible Absorptance

OS:StandardsInformation:Material,
  {2465c661-fe1b-4668-a488-0d97d0d26004}, !- Handle
  {881cca3a-82d7-4e59-99b3-76cd951fe93b}, !- Material Name
  CEC Title24-2013,                       !- Material Standard
  ,                                       !- Material Standard Source
  Air,                                    !- Standards Category
  Air - Ceiling - 3/4 in.,                !- Standards Identifier
  ,                                       !- Composite Framing Material
  ,                                       !- Composite Framing Configuration
  ,                                       !- Composite Framing Depth
  ,                                       !- Composite Framing Size
  ;                                       !- Composite Cavity Insulation

OS:Material,
  {b33f3069-0812-4ee7-b96a-e7904631a462}, !- Handle
  Air - Floor - 1 1/2 in.,                !- Name
  Smooth,                                 !- Roughness
  0.0381,                                 !- Thickness {m}
  0.230706931027306,                      !- Conductivity {W/m-K}
  1.28147706991681,                       !- Density {kg/m3}
  1004.832,                               !- Specific Heat {J/kg-K}
  ,                                       !- Thermal Absorptance
  0,                                      !- Solar Absorptance
  0;                                      !- Visible Absorptance

OS:StandardsInformation:Material,
  {332c2a93-d2e1-4d55-8af3-f1c54b358b19}, !- Handle
  {b33f3069-0812-4ee7-b96a-e7904631a462}, !- Material Name
  CEC Title24-2013,                       !- Material Standard
  ,                                       !- Material Standard Source
  Air,                                    !- Standards Category
  Air - Floor - 1 1/2 in.,                !- Standards Identifier
  ,                                       !- Composite Framing Material
  ,                                       !- Composite Framing Configuration
  ,                                       !- Composite Framing Depth
  ,                                       !- Composite Framing Size
  ;                                       !- Composite Cavity Insulation

OS:Material,
  {f057a4c1-7b7b-4b47-92ca-24a09435ee1c}, !- Handle
  Air - Floor - 1/2 in.,                  !- Name
  Smooth,                                 !- Roughness
  0.0127,                                 !- Thickness {m}
  0.0938058189173294,                     !- Conductivity {W/m-K}
  1.28147706991681,                       !- Density {kg/m3}
  1004.832,                               !- Specific Heat {J/kg-K}
  ,                                       !- Thermal Absorptance
  0,                                      !- Solar Absorptance
  0;                                      !- Visible Absorptance

OS:StandardsInformation:Material,
  {d2f1fdcb-6dad-4635-845a-37fc61628450}, !- Handle
  {f057a4c1-7b7b-4b47-92ca-24a09435ee1c}, !- Material Name
  CEC Title24-2013,                       !- Material Standard
  ,                                       !- Material Standard Source
  Air,                                    !- Standards Category
  Air - Floor - 1/2 in.,                  !- Standards Identifier
  ,                                       !- Composite Framing Material
  ,                                       !- Composite Framing Configuration
  ,                                       !- Composite Framing Depth
  ,                                       !- Composite Framing Size
  ;                                       !- Composite Cavity Insulation

OS:Material,
  {d581f325-1749-44b7-85a1-13e062fee3c2}, !- Handle
  Air - Floor - 3 1/2 in.,                !- Name
  Smooth,                                 !- Roughness
  0.0889,                                 !- Thickness {m}
  0.504855302180535,                      !- Conductivity {W/m-K}
  1.28147706991681,                       !- Density {kg/m3}
  1004.832,                               !- Specific Heat {J/kg-K}
  ,                                       !- Thermal Absorptance
  0,                                      !- Solar Absorptance
  0;                                      !- Visible Absorptance

OS:StandardsInformation:Material,
  {2d94abd4-3968-44c8-ae9e-775221800ba4}, !- Handle