
OS:Version,
  {fb95add2-3a8f-4c4b-a616-ecaae95d2c65}, !- Handle
  1.3.0;                                  !- Version Identifier

OS:Construction,
  {e11b8369-0329-4f57-807b-6060daf679ac}, !- Handle
  ASHRAE 189.1-2009 AtticFloor ClimateZone 1-8, !- Name
  ,                                       !- Surface Rendering Name
  {27424b84-38fc-4476-83ba-7fcf138f8692}, !- Layer 1
  {ae1e977a-bcbf-48ff-b082-4943edfa67db}, !- Layer 2
  {27424b84-38fc-4476-83ba-7fcf138f8692}; !- Layer 3

OS:StandardsInformation:Construction,
  {457ebc66-f18d-46c4-80bf-a542a10dcd68}, !- Handle
  {e11b8369-0329-4f57-807b-6060daf679ac}, !- Construction Name
  AtticFloor,                             !- Intended Surface Type
  WoodFramed;                             !- Standards Construction Type

OS:Material,
  {27424b84-38fc-4476-83ba-7fcf138f8692}, !- Handle
  1/2IN Gypsum,                           !- Name
  Smooth,                                 !- Roughness
  0.0127,                                 !- Thickness {m}
  0.16,                                   !- Conductivity {W/m-K}
  784.9,                                  !- Density {kg/m3}
  830.000000000001,                       !- Specific Heat {J/kg-K}
  0.9,                                    !- Thermal Absorptance
  0.92,                                   !- Solar Absorptance
  0.92;                                   !- Visible Absorptance

OS:Material,
  {ae1e977a-bcbf-48ff-b082-4943edfa67db}, !- Handle
  AtticFloor Insulation,                  !- Name
  MediumRough,                            !- Roughness
  0.2379,                                 !- Thickness {m}
  0.049,                                  !- Conductivity {W/m-K}
  265,                                    !- Density {kg/m3}
  836.800000000001,                       !- Specific Heat {J/kg-K}
  0.9,                                    !- Thermal Absorptance
  0.7,                                    !- Solar Absorptance
  0.7;                                    !- Visible Absorptance

OS:Construction,
  {c7e83294-080b-4e60-b62c-5bd0d74985bd}, !- Handle
  ASHRAE 189.1-2009 ExtRoof IEAD ClimateZone 1, !- Name
  ,                                       !- Surface Rendering Name
  {bb63969d-97f0-4859-a53d-ca5eec40fada}, !- Layer 1
  {9a3e93d5-25fb-4ce8-a14d-5ce180c35118}, !- Layer 2
  {a8e25968-bd15-4961-bc12-f0b968fe50dd}; !- Layer 3

OS:StandardsInformation:Construction,
  {e265cdb1-ad2b-4e08-aefa-9645b343cdc1}, !- Handle
  {c7e83294-080b-4e60-b62c-5bd0d74985bd}, !- Construction Name
  ExteriorRoof,                           !- Intended Surface Type
  IEAD;                                   !- Standards Construction Type

OS:Material,
  {bb63969d-97f0-4859-a53d-ca5eec40fada}, !- Handle
  Roof Membrane,                          !- Name
  VeryRough,                              !- Roughness
  0.0095,                                 !- Thickness {m}
  0.16,                                   !- Conductivity {W/m-K}
  1121.29,                                !- Density {kg/m3}
  1460,                                   !- Specific Heat {J/kg-K}
  0.9,                                    !- Thermal Absorptance
  0.7,                                    !- Solar Absorptance
  0.7;                                    !- Visible Absorptance

OS:Material,
  {9a3e93d5-25fb-4ce8-a14d-5ce180c35118}, !- Handle
  Roof Insulation [18],                   !- Name
  MediumRough,                            !- Roughness
  0.1693,                                 !- Thickness {m}
  0.049,                                  !- Conductivity {W/m-K}
  265,                                    !- Density {kg/m3}
  836.800000000001,                       !- Specific Heat {J/kg-K}
  0.9,                                    !- Thermal Absorptance
  0.7,                                    !- Solar Absorptance
  0.7;                                    !- Visible Absorptance

OS:Material,
  {a8e25968-bd15-4961-bc12-f0b968fe50dd}, !- Handle
  Metal Decking,                          !- Name
  MediumSmooth,                           !- Roughness
  0.0015,                                 !- Thickness {m}
  45.006,                                 !- Conductivity {W/m-K}
  7680,                                   !- Density {kg/m3}
  418.4,                                  !- Specific Heat {J/kg-K}
  0.9,                                    !- Thermal Absorptance
  0.7,                                    !- Solar Absorptance
  0.3;                                    !- Visible Absorptance

OS:Construction,
  {05dd83e6-724b-4c90-b332-f61406fef53a}, !- Handle
  ASHRAE 189.1-2009 ExtRoof IEAD ClimateZone 2-5, !- Name
  ,                                       !- Surface Rendering Name
  {bb63969d-97f0-4859-a53d-ca5eec40fada}, !- Layer 1
  {0642dd20-aec2-429b-affe-e7fdaea26043}, !- Layer 2
  {a8e25968-bd15-4961-bc12-f0b968fe50dd}; !- Layer 3

OS:StandardsInformation:Construction,
  {51daf5af-dd66-4072-9a41-d2da2ac11883}, !- Handle
  {05dd83e6-724b-4c90-b332-f61406fef53a}, !- Construction Name
  ExteriorRoof,                           !- Intended Surface Type
  IEAD;                                   !- Standards Construction Type

OS:Material,
  {0642dd20-aec2-429b-affe-e7fdaea26043}, !- Handle
  Roof Insulation [21],                   !- Name
  MediumRough,                            !- Roughness
  0.2105,                                 !- Thickness {m}
  0.049,                                  !- Conductivity {W/m-K}
  265,                                    !- Density {kg/m3}
  836.800000000001,                       !- Specific Heat {J/kg-K}
  0.9,                                    !- Thermal Absorptance
  0.7,                                    !- Solar Absorptance
  0.7;                                    !- Visible Absorptance

OS:Construction,
  {a865fdd3-6870-4040-8af1-fd7b8ed9c583}, !- Handle
  ASHRAE 189.1-2009 ExtRoof IEAD ClimateZone 6, !- Name
  ,                                       !- Surface Rendering Name
  {bb63969d-97f0-4859-a53d-ca5eec40fada}, !- Layer 1
  {35e3e9be-63e8-431b-8dff-2b45f3c9f63e}, !- Layer 2
  {a8e25968-bd15-4961-bc12-f0b968fe50dd}; !- Layer 3

OS:StandardsInformation:Construction,
  {29cdc5b4-13b2-42ca-87e1-d584fdb7be13}, !- Handle
  {a865fdd3-6870-4040-8af1-fd7b8ed9c583}, !- Construction Name
  ExteriorRoof,                           !- Intended Surface Type
  IEAD;                                   !- Standards Construction Type

OS:Material,
  {35e3e9be-63e8-431b-8dff-2b45f3c9f63e}, !- Handle
  Roof Insulation [24],                   !- Name
  MediumRough,                            !- Roughness
  0.260100000000001,                      !- Thickness {m}
  0.049,                                  !- Conductivity {W/m-K}
  265,                                    !- Density {kg/m3}
  836.800000000001,                       !- Specific Heat {J/kg-K}
  0.9,                                    !- Thermal Absorptance
  0.7,                                    !- Solar Absorptance
  0.7;                                    !- Visible Absorptance

OS:Construction,
  {a233818c-c7fa-43b2-94d6-d58440bf3a36}, !- Handle
  ASHRAE 189.1-2009 ExtRoof IEAD ClimateZone 7-8, !- Name
  ,                                       !- Surface Rendering Name
  {bb63969d-97f0-4859-a53d-ca5eec40fada}, !- Layer 1
  {d0564004-468e-486b-9491-39bb0a19d79a}, !- Layer 2
  {a8e25968-bd15-4961-bc12-f0b968fe50dd}; !- Layer 3

OS:StandardsInformation:Construction,
  {5b220073-ea9c-4a67-97c4-e31be24523e4}, !- Handle
  {a233818c-c7fa-43b2-94d6-d58440bf3a36}, !- Construction Name
  ExteriorRoof,                           !- Intended Surface Type
  IEAD;                                   !- Standards Construction Type

OS:Material,
  {d0564004-468e-486b-9491-39bb0a19d79a}, !- Handle
  Roof Insulation [26],                   !- Name
  MediumRough,                            !- Roughness
  0.2941,                                 !- Thickness {m}
  0.049,                                  !- Conductivity {W/m-K}
  265,                                    !- Density {kg/m3}
  836.800000000001,                       !- Specific Heat {J/kg-K}
  0.9,                                    !- Thermal Absorptance
  0.7,                                    !- Solar Absorptance
  0.7;                                    !- Visible Absorptance

OS:Construction,
  {7102f871-7ef1-4e02-ba0e-8c98fc9cdd50}, !- Handle
  ASHRAE 189.1-2009 ExtRoof Metal ClimateZone 1, !- Name
  ,                                       !- Surface Rendering Name
  {409cf8f3-54c1-4cf0-93cd-f5aca7a078f0}, !- Layer 1
  {433eb63b-cc95-4a6f-9b28-a2abf14b16cc}; !- Layer 2

OS:StandardsInformation:Construction,
  {23870187-e0c3-412b-9f6c-e0d08fadd568}, !- Handle
  {7102f871-7ef1-4e02-ba0e-8c98fc9cdd50}, !- Construction Name
  ExteriorRoof,                           !- Intended Surface Type
  Metal;                                  !- Standards Construction Type

OS:Material,
  {409cf8f3-54c1-4cf0-93cd-f5aca7a078f0}, !- Handle
  Metal Roofing,                          !- Name
  MediumSmooth,                           !- Roughness
  0.0015,                                 !- Thickness {m}
  45.006,                                 !- Conductivity {W/m-K}
  7680,                                   !- Density {kg/m3}
  418.4,                                  !- Specific Heat {J/kg-K}
  0.9,                                    !- Thermal Absorptance
  0.3,                                    !- Solar Absorptance
  0.3;                                    !- Visible Absorptance

OS:Material,
  {433eb63b-cc95-4a6f-9b28-a2abf14b16cc}, !- Handle
  Roof Insulation [19],                   !- Name
  MediumRough,                            !- Roughness
  0.1868,                                 !- Thickness {m}
  0.049,                                  !- Conductivity {W/m-K}
  265,                                    !- Density {kg/m3}
  836.800000000001,                       !- Specific Heat {J/kg-K}
  0.9,                                    !- Thermal Absorptance
  0.7,                                    !- Solar Absorptance
  0.7;                                    !- Visible Absorptance

OS:Construction,
  {9b2eb796-235b-40cd-9363-30112678a0d8}, !- Handle
  ASHRAE 189.1-2009 ExtRoof Metal ClimateZone 2-5, !- Name
  ,                                       !- Surface Rendering Name
  {409cf8f3-54c1-4cf0-93cd-f5aca7a078f0}, !- Layer 1
  {e21a33c9-04f5-4a85-ad8d-d8df6c497a60}; !- Layer 2

OS:StandardsInformation:Construction,
  {2b17a851-12a9-4a79-aa6a-a6cce3c81912}, !- Handle
  {9b2eb796-235b-40cd-9363-30112678a0d8}, !- Construction Name
  ExteriorRoof,                           !- Intended Surface Type
  Metal;                                  !- Standards Construction Type

OS:Material,
  {e21a33c9-04f5-4a85-ad8d-d8df6c497a60}, !- Handle
  Roof Insulation [22],                   !- Name
  MediumRough,                            !- Roughness
  0.2358,                                 !- Thickness {m}
  0.049,                                  !- Conductivity {W/m-K}
  265,                                    !- Density {kg/m3}
  836.800000000001,                       !- Specific Heat {J/kg-K}
  0.9,                                    !- Thermal Absorptance
  0.7,                                    !- Solar Absorptance
  0.7;                                    !- Visible Absorptance

OS:Construction,
  {811a969b-1042-4922-81c2-1b6c1fe659f4}, !- Handle
  ASHRAE 189.1-2009 ExtRoof Metal ClimateZone 6, !- Name
  ,                                       !- Surface Rendering Name
  {409cf8f3-54c1-4cf0-93cd-f5aca7a078f0}, !- Layer 1
  {5993eb66-ceeb-42e0-9847-235af48443dd}; !- Layer 2

OS:StandardsInformation:Construction,
  {3f135b2d-04b2-4679-b0ad-1a7a7010fa8b}, !- Handle
  {811a969b-1042-4922-81c2-1b6c1fe659f4}, !- Construction Name
  ExteriorRoof,                           !- Intended Surface Type
  Metal;                                  !- Standards Construction Type

OS:Material,
  {5993eb66-ceeb-42e0-9847-235af48443dd}, !- Handle
  Roof Insulation [25],                   !- Name
  MediumRough,                            !- Roughness
  0.263,                                  !- Thickness {m}
  0.049,                                  !- Conductivity {W/m-K}
  265,                                    !- Density {kg/m3}
  836.800000000001,                       !- Specific Heat {J/kg-K}
  0.9,                                    !- Thermal Absorptance
  0.7,                                    !- Solar Absorptance
  0.7;                                    !- Visible Absorptance

OS:Construction,
  {cedf619e-12bc-4a64-84b9-771542cc3d08}, !- Handle
  ASHRAE 189.1-2009 ExtRoof Metal ClimateZone 7-8, !- Name
  ,                                       !- Surface Rendering Name
  {409cf8f3-54c1-4cf0-93cd-f5aca7a078f0}, !- Layer 1
  {7fc9515e-df56-45f6-b832-a5098f70966d}; !- Layer 2

OS:StandardsInformation:Construction,
  {4497cf6e-84a7-462a-9a68-95444aee2a67}, !- Handle
  {cedf619e-12bc-4a64-84b9-771542cc3d08}, !- Construction Name
  ExteriorRoof,                           !- Intended Surface Type
  Metal;                                  !- Standards Construction Type

OS:Material,
  {7fc9515e-df56-45f6-b832-a5098f70966d}, !- Handle
  Roof Insulation [27],                   !- Name
  MediumRough,                            !- Roughness
  0.297000000000001,                      !- Thickness {m}
  0.049,                                  !- Conductivity {W/m-K}
  265,                                    !- Density {kg/m3}
  836.800000000001,                       !- Specific Heat {J/kg-K}
  0.9,                                    !- Thermal Absorptance
  0.7,                                    !- Solar Absorptance
  0.7;                                    !- Visible Absorptance

OS:Construction,
  {f95a6271-e559-4c99-aa74-25350ec0fb83}, !- Handle
  ASHRAE 189.1-2009 ExtWall Mass ClimateZone 1, !- Name
  ,                                       !- Surface Rendering Name
  {4dc42b02-d8e7-4528-bca0-8ec429d57328}, !- Layer 1
  {49954671-7bfe-4357-a630-efcc32829a42}, !- Layer 2
  {4b42b76b-f909-49c0-8392-860520d1bc08}, !- Layer 3
  {27424b84-38fc-4476-83ba-7fcf138f8692}; !- Layer 4

OS:StandardsInformation:Construction,
  {6aa12727-0e24-4c20-8121-331172d0d6a5}, !- Handle
  {f95a6271-e559-4c99-aa74-25350ec0fb83}, !- Construction Name
  ExteriorWall,                           !- Intended Surface Type
  Mass;                                   !- Standards Construction Type

OS:Material,
  {4dc42b02-d8e7-4528-bca0-8ec429d57328}, !- Handle
  1IN Stucco,                             !- Name
  Smooth,                                 !- Roughness
  0.0253,                                 !- Thickness {m}
  0.691799999999999,                      !- Conductivity {W/m-K}
  1858,                                   !- Density {kg/m3}
  836.999999999999,                       !- Specific Heat {J/kg-K}
  0.9,                                    !- Thermal Absorptance
  0.92,                                   !- Solar Absorptance
  0.92;                                   !- Visible Absorptance

OS:Material,
  {49954671-7bfe-4357-a630-efcc32829a42}, !- Handle
  8IN Concrete HW,                        !- Name
  MediumRough,                            !- Roughness
  0.2033,                                 !- Thickness {m}
  1.72959999999999,                       !- Conductivity {W/m-K}
  2242.99999999999,                       !- Density {kg/m3}
  836.999999999999,                       !- Specific Heat {J/kg-K}
  0.9,                                    !- Thermal Absorptance
  0.65,                                   !- Solar Absorptance
  0.65;                                   !- Visible Absorptance

OS:Material,
  {4b42b76b-f909-49c0-8392-860520d1bc08}, !- Handle
  Wall Insulation [31],                   !- Name
  MediumRough,                            !- Roughness
  0.0337000000000001,                     !- Thickness {m}
  0.0432,                                 !- Conductivity {W/m-K}
  91,                                     !- Density {kg/m3}
  836.999999999999,                       !- Specific Heat {J/kg-K}
  0.9,                                    !- Thermal Absorptance
  0.5,                                    !- Solar Absorptance
  0.5;                                    !- Visible Absorptance

OS:Construction,
  {5468cfb2-c0e6-4079-afcd-9e643eb996e7}, !- Handle
  ASHRAE 189.1-2009 ExtWall Mass ClimateZone 2, !- Name
  ,                                       !- Surface Rendering Name
  {4dc42b02-d8e7-4528-bca0-8ec429d57328}, !- Layer 1
  {49954671-7bfe-4357-a630-efcc32829a42}, !- Layer 2
  {a4114261-baba-4f7f-b2a7-e4b5ddbece1b}, !- Layer 3
  {27424b84-38fc-4476-83ba-7fcf138f8692}; !- Layer 4

OS:StandardsInformation:Construction,
  {72dd7df7-08d8-43e9-a415-65d243c3460f}, !- Handle
  {5468cfb2-c0e6-4079-afcd-9e643eb996e7}, !- Construction Name
  ExteriorWall,                           !- Intended Surface Type
  Mass;                                   !- Standards Construction Type

OS:Material,
  {a4114261-baba-4f7f-b2a7-e4b5ddbece1b}, !- Handle
  Wall Insulation [35],                   !- Name
  MediumRough,                            !- Roughness
  0.0452,                                 !- Thickness {m}
  0.0432,                                 !- Conductivity {W/m-K}
  91,                                     !- Density {kg/m3}
  836.999999999999,                       !- Specific Heat {J/kg-K}
  0.9,                                    !- Thermal Absorptance
  0.5,                                    !- Solar Absorptance
  0.5;                                    !- Visible Absorptance

OS:Construction,
  {f6698350-b2cc-4f5f-af3d-ec1178732882}, !- Handle
  ASHRAE 189.1-2009 ExtWall Mass ClimateZone 3, !- Name
  ,                                       !- Surface Rendering Name
  {4dc42b02-d8e7-4528-bca0-8ec429d57328}, !- Layer 1
  {49954671-7bfe-4357-a630-efcc32829a42}, !- Layer 2
  {d9485d69-3658-4c3c-ade5-7294b748dc77}, !- Layer 3
  {27424b84-38fc-4476-83ba-7fcf138f8692}; !- Layer 4

OS:StandardsInformation:Construction,
  {db4c2f05-d815-48ef-812a-faa876e85322}, !- Handle
  {f6698350-b2cc-4f5f-af3d-ec1178732882}, !- Construction Name
  ExteriorWall,                           !- Intended Surface Type
  Mass;                                   !- Standards Construction Type

OS:Material,
  {d9485d69-3658-4c3c-ade5-7294b748dc77}, !- Handle
  Wall Insulation [36],                   !- Name
  MediumRough,                            !- Roughness
  0.0565999999999999,                     !- Thickness {m}
  0.0432,                                 !- Conductivity {W/m-K}
  91,                                     !- Density {kg/m3}
  836.999999999999,                       !- Specific Heat {J/kg-K}
  0.9,                                    !- Thermal Absorptance
  0.5,                                    !- Solar Absorptance
  0.5;                                    !- Visible Absorptance

OS:Construction,
  {8d582512-28cc-4df3-95ec-fdc522b35f17}, !- Handle
  ASHRAE 189.1-2009 ExtWall Mass ClimateZone 4, !- Name
  ,                                       !- Surface Rendering Name
  {4dc42b02-d8e7-4528-bca0-8ec429d57328}, !- Layer 1
  {49954671-7bfe-4357-a630-efcc32829a42}, !- Layer 2
  {0845bf16-6e81-4212-b165-843f2c3c77ac}, !- Layer 3
  {27424b84-38fc-4476-83ba-7fcf138f8692}; !- Layer 4

OS:StandardsInformation:Construction,
  {18e81f19-082f-4b00-ac18-a713467e894a}, !- Handle
  {8d582512-28cc-4df3-95ec-fdc522b35f17}, !- Construction Name
  ExteriorWall,                           !- Intended Surface Type
  Mass;                                   !- Standards Construction Type

OS:Material,
  {0845bf16-6e81-4212-b165-843f2c3c77ac}, !- Handle
  Wall Insulation [37],                   !- Name
  MediumRough,                            !- Roughness
  0.0680999999999999,                     !- Thickness {m}
  0.0432,                                 !- Conductivity {W/m-K}
  91,                                     !- Density {kg/m3}
  836.999999999999,                       !- Specific Heat {J/kg-K}
  0.9,                                    !- Thermal Absorptance
  0.5,                                    !- Solar Absorptance
  0.5;                                    !- Visible Absorptance

OS:Construction,
  {3c30b1a3-ca97-434c-87ec-e4adedcde8d2}, !- Handle
  ASHRAE 189.1-2009 ExtWall Mass ClimateZone 5, !- Name
  ,                                       !- Surface Rendering Name
  {4dc42b02-d8e7-4528-bca0-8ec429d57328}, !- Layer 1
  {49954671-7bfe-4357-a630-efcc32829a42}, !- Layer 2
  {6f004ccf-5602-4be3-b838-ae8e393292de}, !- Layer 3
  {27424b84-38fc-4476-83ba-7fcf138f8692}; !- Layer 4

OS:StandardsInformation:Construction,
  {70ba7e5d-aa61-4346-a3eb-7f1ea0ad0999}, !- Handle
  {3c30b1a3-ca97-434c-87ec-e4adedcde8d2}, !- Construction Name
  ExteriorWall,                           !- Intended Surface Type
  Mass;                                   !- Standards Construction Type

OS:Material,
  {6f004ccf-5602-4be3-b838-ae8e393292de}, !- Handle
  Wall Insulation [40],                   !- Name
  MediumRough,                            !- Roughness
  0.0793999999999999,                     !- Thickness {m}
  0.0432,                                 !- Conductivity {W/m-K}
  91,                                     !- Density {kg/m3}
  836.999999999999,                       !- Specific Heat {J/kg-K}
  0.9,                                    !- Thermal Absorptance
  0.5,                                    !- Solar Absorptance
  0.5;                                    !- Visible Absorptance

OS:Construction,
  {13fde8a3-3a44-44da-9900-e690acccdfcd}, !- Handle
  ASHRAE 189.1-2009 ExtWall Mass ClimateZone 6, !- Name
  ,                                       !- Surface Rendering Name
  {4dc42b02-d8e7-4528-bca0-8ec429d57328}, !- Layer 1
  {49954671-7bfe-4357-a630-efcc32829a42}, !- Layer 2
  {3525fe6d-ea3a-4e6e-9932-2c7569bdc82d}, !- Layer 3
  {27424b84-38fc-4476-83ba-7fcf138f8692}; !- Layer 4

OS:StandardsInformation:Construction,
  {c0f3f101-39c1-4fdd-9c89-f2beddf38020}, !- Handle
  {13fde8a3-3a44-44da-9900-e690acccdfcd}, !- Construction Name
  ExteriorWall,                           !- Intended Surface Type
  Mass;                                   !- Standards Construction Type

OS:Material,
  {3525fe6d-ea3a-4e6e-9932-2c7569bdc82d}, !- Handle
  Wall Insulation [42],                   !- Name
  MediumRough,                            !- Roughness
  0.0913999999999999,                     !- Thickness {m}
  0.0432,                                 !- Conductivity {W/m-K}
  91,                                     !- Density {kg/m3}
  836.999999999999,                       !- Specific Heat {J/kg-K}
  0.9,                                    !- Thermal Absorptance
  0.5,                                    !- Solar Absorptance
  0.5;                                    !- Visible Absorptance

OS:Construction,
  {a35861d3-1ef2-46df-86ea-52a1531d9a7a}, !- Handle
  ASHRAE 189.1-2009 ExtWall Mass ClimateZone 7-8, !- Name
  ,                                       !- Surface Rendering Name
  {4dc42b02-d8e7-4528-bca0-8ec429d57328}, !- Layer 1
  {49954671-7bfe-4357-a630-efcc32829a42}, !- Layer 2
  {2fd1b2a2-adaa-4d3b-a2a4-07335bb90ad5}, !- Layer 3
  {27424b84-38fc-4476-83ba-7fcf138f8692}; !- Layer 4

OS:StandardsInformation:Construction,
  {adaed0ca-cda9-4ba0-bc82-74668761ee23}, !- Handle
  {a35861d3-1ef2-46df-86ea-52a1531d9a7a}, !- Construction Name
  ExteriorWall,                           !- Intended Surface Type
  Mass;                                   !- Standards Construction Type

OS:Material,
  {2fd1b2a2-adaa-4d3b-a2a4-07335bb90ad5}, !- Handle
  Wall Insulation [44],                   !- Name
  MediumRough,                            !- Roughness
  0.1104,                                 !- Thickness {m}
  0.0432,                                 !- Conductivity {W/m-K}
  91,                                     !- Density {kg/m3}
  836.999999999999,                       !- Specific Heat {J/kg-K}
  0.9,                                    !- Thermal Absorptance
  0.5,                                    !- Solar Absorptance
  0.5;                                    !- Visible Absorptance

OS:Construction,
  {7f72b767-93f9-4657-85ff-65ce3c207ed8}, !- Handle
  ASHRAE 189.1-2009 ExtWall Mass ClimateZone alt-res 1, !- Name
  ,                                       !- Surface Rendering Name
  {4dc42b02-d8e7-4528-bca0-8ec429d57328}, !- Layer 1
  {49954671-7bfe-4357-a630-efcc32829a42}, !- Layer 2
  {a4114261-baba-4f7f-b2a7-e4b5ddbece1b}, !- Layer 3
  {27424b84-38fc-4476-83ba-7fcf138f8692}; !- Layer 4

OS:StandardsInformation:Construction,
  {a818f144-a3d0-4a94-a312-8f8a16dc4ce9}, !- Handle
  {7f72b767-93f9-4657-85ff-65ce3c207ed8}, !- Construction Name
  ExteriorWall,                           !- Intended Surface Type
  Mass;                                   !- Standards Construction Type

OS:Construction,
  {0c399a84-630f-4a47-b147-ac473e0e26cc}, !- Handle
  ASHRAE 189.1-2009 ExtWall Mass ClimateZone alt-res 2, !- Name
  ,                                       !- Surface Rendering Name
  {4dc42b02-d8e7-4528-bca0-8ec429d57328}, !- Layer 1
  {49954671-7bfe-4357-a630-efcc32829a42}, !- Layer 2
  {d9485d69-3658-4c3c-ade5-7294b748dc77}, !- Layer 3
  {27424b84-38fc-4476-83ba-7fcf138f8692}; !- Layer 4

OS:StandardsInformation:Construction,
  {2055befa-c59d-410a-8467-2811dc448832}, !- Handle
  {0c399a84-630f-4a47-b147-ac473e0e26cc}, !- Construction Name
  ExteriorWall,                           !- Intended Surface Type
  Mass;                                   !- Standards Construction Type

OS:Construction,
  {ce267285-e2ec-4179-8c0b-12d6b3a086fd}, !- Handle
  ASHRAE 189.1-2009 ExtWall Mass ClimateZone alt-res 3, !- Name
  ,                                       !- Surface Rendering Name
  {4dc42b02-d8e7-4528-bca0-8ec429d57328}, !- Layer 1
  {49954671-7bfe-4357-a630-efcc32829a42}, !- Layer 2
  {0845bf16-6e81-4212-b165-843f2c3c77ac}, !- Layer 3
  {27424b84-38fc-4476-83ba-7fcf138f8692}; !- Layer 4

OS:StandardsInformation:Construction,
  {b7b6ab29-baf2-4333-82a2-7eca45ea3dac}, !- Handle
  {ce267285-e2ec-4179-8c0b-12d6b3a086fd}, !- Construction Name
  ExteriorWall,                           !- Intended Surface Type
  Mass;                                   !- Standards Construction Type

OS:Construction,
  {2b18f40a-ab99-4c0d-8b17-56cdf4858b4c}, !- Handle
  ASHRAE 189.1-2009 ExtWall Mass ClimateZone alt-res 4, !- Name
  ,                                       !- Surface Rendering Name
  {4dc42b02-d8e7-4528-bca0-8ec429d57328}, !- Layer 1
  {49954671-7bfe-4357-a630-efcc32829a42}, !- Layer 2
  {6f004ccf-5602-4be3-b838-ae8e393292de}, !- Layer 3
  {27424b84-38fc-4476-83ba-7fcf138f8692}; !- Layer 4

OS:StandardsInformation:Construction,
  {40d5f097-864c-4d64-930f-514bf4276672}, !- Handle
  {2b18f40a-ab99-4c0d-8b17-56cdf4858b4c}, !- Construction Name
  ExteriorWall,                           !- Intended Surface Type
  Mass;                                   !- Standards Construction Type

OS:Construction,
  {d5b581de-3b96-49c5-ba4f-fd0bf210b85e}, !- Handle
  ASHRAE 189.1-2009 ExtWall Mass ClimateZone alt-res 5, !- Name
  ,                                       !- Surface Rendering Name
  {4dc42b02-d8e7-4528-bca0-8ec429d57328}, !- Layer 1
  {49954671-7bfe-4357-a630-efcc32829a42}, !- Layer 2
  {3525fe6d-ea3a-4e6e-9932-2c7569bdc82d}, !- Layer 3
  {27424b84-38fc-4476-83ba-7fcf138f8692}; !- Layer 4

OS:StandardsInformation:Construction,
  {f91e312c-6c86-4f28-948c-f395de952b6a}, !- Handle
  {d5b581de-3b96-49c5-ba4f-fd0bf210b85e}, !- Construction Name
  ExteriorWall,                           !- Intended Surface Type
  Mass;                                   !- Standards Construction Type

OS:Construction,
  {658a27b3-7112-4064-8e24-510fb2c4baf6}, !- Handle
  ASHRAE 189.1-2009 ExtWall Mass ClimateZone alt-res 6, !- Name
  ,                                       !- Surface Rendering Name
  {4dc42b02-d8e7-4528-bca0-8ec429d57328}, !- Layer 1
  {49954671-7bfe-4357-a630-efcc32829a42}, !- Layer 2
  {2fd1b2a2-adaa-4d3b-a2a4-07335bb90ad5}, !- Layer 3
  {27424b84-38fc-4476-83ba-7fcf138f8692}; !- Layer 4

OS:StandardsInformation:Construction,
  {50872116-d9bf-4413-abec-ea250e6df066}, !- Handle
  {658a27b3-7112-4064-8e24-510fb2c4baf6}, !- Construction Name
  ExteriorWall,                           !- Intended Surface Type
  Mass;                                   !- Standards Construction Type

OS:Construction,
  {b370d480-bf5c-4fe8-8c7a-647cbaba73d9}, !- Handle
  ASHRAE 189.1-2009 ExtWall Mass ClimateZone alt-res 7, !- Name
  ,                                       !- Surface Rendering Name
  {4dc42b02-d8e7-4528-bca0-8ec429d57328}, !- Layer 1
  {49954671-7bfe-4357-a630-efcc32829a42}, !- Layer 2
  {2fd1b2a2-adaa-4d3b-a2a4-07335bb90ad5}, !- Layer 3
  {27424b84-38fc-4476-83ba-7fcf138f8692}; !- Layer 4

OS:StandardsInformation:Construction,
  {2a19642c-2b7c-48b7-88a3-8ae6f939957e}, !- Handle
  {b370d480-bf5c-4fe8-8c7a-647cbaba73d9}, !- Construction Name
  ExteriorWall,                           !- Intended Surface Type
  Mass;                                   !- Standards Construction Type

OS:Construction,
  {b9baee13-7eec-4d58-a8f6-07095ff6a2a9}, !- Handle
  ASHRAE 189.1-2009 ExtWall Mass ClimateZone alt-res 8, !- Name