
OS:Version,
  {5ba6fe83-2215-46ee-8c85-c54a9518ffa7}, !- Handle
  1.3.0;                                  !- Version Identifier

OS:Construction,
  {2ea0143d-242e-43d3-b1d1-14d0070fc559}, !- Handle
  ASHRAE 189.1-2009 AtticFloor ClimateZone 1-8, !- Name
  ,                                       !- Surface Rendering Name
  {deb24824-6cac-4b05-8aaa-671727fd455f}, !- Layer 1
  {229632bf-91e2-4812-a2da-856bc66d7d45}, !- Layer 2
  {deb24824-6cac-4b05-8aaa-671727fd455f}; !- Layer 3

OS:StandardsInformation:Construction,
  {e5c90741-f478-4e5e-a4a1-dbcf73b7670b}, !- Handle
  {2ea0143d-242e-43d3-b1d1-14d0070fc559}, !- Construction Name
  AtticFloor,                             !- Intended Surface Type
  WoodFramed;                             !- Standards Construction Type

OS:Material,
  {deb24824-6cac-4b05-8aaa-671727fd455f}, !- Handle
  1/2IN Gypsum,                           !- Name
  Smooth,                                 !- Roughness
  0.0127,                                 !- Thickness {m}
  0.16,                                   !- Conductivity {W/m-K}
  784.9,                                  !- Density {kg/m3}
  830.000000000001,                       !- Specific Heat {J/kg-K}
  0.9,                                    !- Thermal Absorptance
  0.92,                                   !- Solar Absorptance
  0.92;                                   !- Visible Absorptance

OS:Material,
  {229632bf-91e2-4812-a2da-856bc66d7d45}, !- Handle
  AtticFloor Insulation,                  !- Name
  MediumRough,                            !- Roughness
  0.2379,                                 !- Thickness {m}
  0.049,                                  !- Conductivity {W/m-K}
  265,                                    !- Density {kg/m3}
  836.800000000001,                       !- Specific Heat {J/kg-K}
  0.9,                                    !- Thermal Absorptance
  0.7,                                    !- Solar Absorptance
  0.7;                                    !- Visible Absorptance

OS:Construction,
  {d84986d7-aa6f-4d3e-b994-d3609990a17c}, !- Handle
  ASHRAE 189.1-2009 ExtRoof IEAD ClimateZone 1, !- Name
  ,                                       !- Surface Rendering Name
  {51c6eb65-4721-4c4e-a6c8-f167cf32aff5}, !- Layer 1
  {ed7f6984-4c12-4c6a-bbf4-51a702d03d0a}, !- Layer 2
  {89d9c615-6a43-4cfa-8452-c9015aa4dfea}; !- Layer 3

OS:StandardsInformation:Construction,
  {edf529b7-8fc8-454a-8db0-967279984df9}, !- Handle
  {d84986d7-aa6f-4d3e-b994-d3609990a17c}, !- Construction Name
  ExteriorRoof,                           !- Intended Surface Type
  IEAD;                                   !- Standards Construction Type

OS:Material,
  {51c6eb65-4721-4c4e-a6c8-f167cf32aff5}, !- Handle
  Roof Membrane,                          !- Name
  VeryRough,                              !- Roughness
  0.0095,                                 !- Thickness {m}
  0.16,                                   !- Conductivity {W/m-K}
  1121.29,                                !- Density {kg/m3}
  1460,                                   !- Specific Heat {J/kg-K}
  0.9,                                    !- Thermal Absorptance
  0.7,                                    !- Solar Absorptance
  0.7;                                    !- Visible Absorptance

OS:Material,
  {ed7f6984-4c12-4c6a-bbf4-51a702d03d0a}, !- Handle
  Roof Insulation [18],                   !- Name
  MediumRough,                            !- Roughness
  0.1693,                                 !- Thickness {m}
  0.049,                                  !- Conductivity {W/m-K}
  265,                                    !- Density {kg/m3}
  836.800000000001,                       !- Specific Heat {J/kg-K}
  0.9,                                    !- Thermal Absorptance
  0.7,                                    !- Solar Absorptance
  0.7;                                    !- Visible Absorptance

OS:Material,
  {89d9c615-6a43-4cfa-8452-c9015aa4dfea}, !- Handle
  Metal Decking,                          !- Name
  MediumSmooth,                           !- Roughness
  0.0015,                                 !- Thickness {m}
  45.006,                                 !- Conductivity {W/m-K}
  7680,                                   !- Density {kg/m3}
  418.4,                                  !- Specific Heat {J/kg-K}
  0.9,                                    !- Thermal Absorptance
  0.7,                                    !- Solar Absorptance
  0.3;                                    !- Visible Absorptance

OS:Construction,
  {03cca07d-4f06-49d9-beb8-3fd6cd4adbe1}, !- Handle
  ASHRAE 189.1-2009 ExtRoof IEAD ClimateZone 2-5, !- Name
  ,                                       !- Surface Rendering Name
  {51c6eb65-4721-4c4e-a6c8-f167cf32aff5}, !- Layer 1
  {6a71d3b3-ef66-4f09-bad6-0a3cf3a60ddf}, !- Layer 2
  {89d9c615-6a43-4cfa-8452-c9015aa4dfea}; !- Layer 3

OS:StandardsInformation:Construction,
  {777f942c-aaf2-4d26-b21d-f3dd55a32ca9}, !- Handle
  {03cca07d-4f06-49d9-beb8-3fd6cd4adbe1}, !- Construction Name
  ExteriorRoof,                           !- Intended Surface Type
  IEAD;                                   !- Standards Construction Type

OS:Material,
  {6a71d3b3-ef66-4f09-bad6-0a3cf3a60ddf}, !- Handle
  Roof Insulation [21],                   !- Name
  MediumRough,                            !- Roughness
  0.2105,                                 !- Thickness {m}
  0.049,                                  !- Conductivity {W/m-K}
  265,                                    !- Density {kg/m3}
  836.800000000001,                       !- Specific Heat {J/kg-K}
  0.9,                                    !- Thermal Absorptance
  0.7,                                    !- Solar Absorptance
  0.7;                                    !- Visible Absorptance

OS:Construction,
  {73659cf7-e67a-44db-b15d-249d63005536}, !- Handle
  ASHRAE 189.1-2009 ExtRoof IEAD ClimateZone 6, !- Name
  ,                                       !- Surface Rendering Name
  {51c6eb65-4721-4c4e-a6c8-f167cf32aff5}, !- Layer 1
  {3e06a782-2011-442d-8c8c-06fad3f31799}, !- Layer 2
  {89d9c615-6a43-4cfa-8452-c9015aa4dfea}; !- Layer 3

OS:StandardsInformation:Construction,
  {51ecbb17-1ca8-4b96-aa27-1ecbb28f16be}, !- Handle
  {73659cf7-e67a-44db-b15d-249d63005536}, !- Construction Name
  ExteriorRoof,                           !- Intended Surface Type
  IEAD;                                   !- Standards Construction Type

OS:Material,
  {3e06a782-2011-442d-8c8c-06fad3f31799}, !- Handle
  Roof Insulation [24],                   !- Name
  MediumRough,                            !- Roughness
  0.260100000000001,                      !- Thickness {m}
  0.049,                                  !- Conductivity {W/m-K}
  265,                                    !- Density {kg/m3}
  836.800000000001,                       !- Specific Heat {J/kg-K}
  0.9,                                    !- Thermal Absorptance
  0.7,                                    !- Solar Absorptance
  0.7;                                    !- Visible Absorptance

OS:Construction,
  {fb992e61-3a27-4160-9b63-8cca207cb18f}, !- Handle
  ASHRAE 189.1-2009 ExtRoof IEAD ClimateZone 7-8, !- Name
  ,                                       !- Surface Rendering Name
  {51c6eb65-4721-4c4e-a6c8-f167cf32aff5}, !- Layer 1
  {679aa366-5b92-4013-9393-5d64e5093076}, !- Layer 2
  {89d9c615-6a43-4cfa-8452-c9015aa4dfea}; !- Layer 3

OS:StandardsInformation:Construction,
  {b7659830-1bc1-454c-8ce8-bb97eb666406}, !- Handle
  {fb992e61-3a27-4160-9b63-8cca207cb18f}, !- Construction Name
  ExteriorRoof,                           !- Intended Surface Type
  IEAD;                                   !- Standards Construction Type

OS:Material,
  {679aa366-5b92-4013-9393-5d64e5093076}, !- Handle
  Roof Insulation [26],                   !- Name
  MediumRough,                            !- Roughness
  0.2941,                                 !- Thickness {m}
  0.049,                                  !- Conductivity {W/m-K}
  265,                                    !- Density {kg/m3}
  836.800000000001,                       !- Specific Heat {J/kg-K}
  0.9,                                    !- Thermal Absorptance
  0.7,                                    !- Solar Absorptance
  0.7;                                    !- Visible Absorptance

OS:Construction,
  {878ec645-59f9-4572-a6e8-dd5fc5b26d2f}, !- Handle
  ASHRAE 189.1-2009 ExtRoof Metal ClimateZone 1, !- Name
  ,                                       !- Surface Rendering Name
  {944630e1-2411-4f15-9f7a-0c2caec45d2e}, !- Layer 1
  {03b16148-52c4-46fb-8820-4267848051f5}; !- Layer 2

OS:StandardsInformation:Construction,
  {35a215d8-5b44-47f8-9998-46cfaaf98e66}, !- Handle
  {878ec645-59f9-4572-a6e8-dd5fc5b26d2f}, !- Construction Name
  ExteriorRoof,                           !- Intended Surface Type
  Metal;                                  !- Standards Construction Type

OS:Material,
  {944630e1-2411-4f15-9f7a-0c2caec45d2e}, !- Handle
  Metal Roofing,                          !- Name
  MediumSmooth,                           !- Roughness
  0.0015,                                 !- Thickness {m}
  45.006,                                 !- Conductivity {W/m-K}
  7680,                                   !- Density {kg/m3}
  418.4,                                  !- Specific Heat {J/kg-K}
  0.9,                                    !- Thermal Absorptance
  0.3,                                    !- Solar Absorptance
  0.3;                                    !- Visible Absorptance

OS:Material,
  {03b16148-52c4-46fb-8820-4267848051f5}, !- Handle
  Roof Insulation [19],                   !- Name
  MediumRough,                            !- Roughness
  0.1868,                                 !- Thickness {m}
  0.049,                                  !- Conductivity {W/m-K}
  265,                                    !- Density {kg/m3}
  836.800000000001,                       !- Specific Heat {J/kg-K}
  0.9,                                    !- Thermal Absorptance
  0.7,                                    !- Solar Absorptance
  0.7;                                    !- Visible Absorptance

OS:Construction,
  {cf1e7e8a-97ff-4cf2-aa12-03bf126544d5}, !- Handle
  ASHRAE 189.1-2009 ExtRoof Metal ClimateZone 2-5, !- Name
  ,                                       !- Surface Rendering Name
  {944630e1-2411-4f15-9f7a-0c2caec45d2e}, !- Layer 1
  {de76406c-e2d8-4619-95ff-26b49e61188e}; !- Layer 2

OS:StandardsInformation:Construction,
  {0c2cd302-95ef-4bf2-8caf-662d591bba0f}, !- Handle
  {cf1e7e8a-97ff-4cf2-aa12-03bf126544d5}, !- Construction Name
  ExteriorRoof,                           !- Intended Surface Type
  Metal;                                  !- Standards Construction Type

OS:Material,
  {de76406c-e2d8-4619-95ff-26b49e61188e}, !- Handle
  Roof Insulation [22],                   !- Name
  MediumRough,                            !- Roughness
  0.2358,                                 !- Thickness {m}
  0.049,                                  !- Conductivity {W/m-K}
  265,                                    !- Density {kg/m3}
  836.800000000001,                       !- Specific Heat {J/kg-K}
  0.9,                                    !- Thermal Absorptance
  0.7,                                    !- Solar Absorptance
  0.7;                                    !- Visible Absorptance

OS:Construction,
  {a73be250-8189-4347-ab61-06ce9a609330}, !- Handle
  ASHRAE 189.1-2009 ExtRoof Metal ClimateZone 6, !- Name
  ,                                       !- Surface Rendering Name
  {944630e1-2411-4f15-9f7a-0c2caec45d2e}, !- Layer 1
  {72736f9c-d396-4371-970b-856c1261d455}; !- Layer 2

OS:StandardsInformation:Construction,
  {2ac69c9e-d3f5-41cb-b1ad-0e358ab81c66}, !- Handle
  {a73be250-8189-4347-ab61-06ce9a609330}, !- Construction Name
  ExteriorRoof,                           !- Intended Surface Type
  Metal;                                  !- Standards Construction Type

OS:Material,
  {72736f9c-d396-4371-970b-856c1261d455}, !- Handle
  Roof Insulation [25],                   !- Name
  MediumRough,                            !- Roughness
  0.263,                                  !- Thickness {m}
  0.049,                                  !- Conductivity {W/m-K}
  265,                                    !- Density {kg/m3}
  836.800000000001,                       !- Specific Heat {J/kg-K}
  0.9,                                    !- Thermal Absorptance
  0.7,                                    !- Solar Absorptance
  0.7;                                    !- Visible Absorptance

OS:Construction,
  {d2dc6fe4-ca90-4e1d-aec3-65113abcd95f}, !- Handle
  ASHRAE 189.1-2009 ExtRoof Metal ClimateZone 7-8, !- Name
  ,                                       !- Surface Rendering Name
  {944630e1-2411-4f15-9f7a-0c2caec45d2e}, !- Layer 1
  {e4f46623-60d4-43ac-8216-fb427e7e32e7}; !- Layer 2

OS:StandardsInformation:Construction,
  {ac3e928a-7c45-44db-9ebc-d00abdedd6f5}, !- Handle
  {d2dc6fe4-ca90-4e1d-aec3-65113abcd95f}, !- Construction Name
  ExteriorRoof,                           !- Intended Surface Type
  Metal;                                  !- Standards Construction Type

OS:Material,
  {e4f46623-60d4-43ac-8216-fb427e7e32e7}, !- Handle
  Roof Insulation [27],                   !- Name
  MediumRough,                            !- Roughness
  0.297000000000001,                      !- Thickness {m}
  0.049,                                  !- Conductivity {W/m-K}
  265,                                    !- Density {kg/m3}
  836.800000000001,                       !- Specific Heat {J/kg-K}
  0.9,                                    !- Thermal Absorptance
  0.7,                                    !- Solar Absorptance
  0.7;                                    !- Visible Absorptance

OS:Construction,
  {41d7b45c-8f81-455d-9cfd-ef719eedad37}, !- Handle
  ASHRAE 189.1-2009 ExtWall Mass ClimateZone 1, !- Name
  ,                                       !- Surface Rendering Name
  {4b62da87-f2ff-4ed9-9e0d-93d41de84acb}, !- Layer 1
  {9d1ecfe9-264b-4918-97b0-9669effae3b8}, !- Layer 2
  {a269e341-1156-47ce-ad99-333f0deb60b3}, !- Layer 3
  {deb24824-6cac-4b05-8aaa-671727fd455f}; !- Layer 4

OS:StandardsInformation:Construction,
  {5b9995f0-c012-424b-8778-0df3c273c291}, !- Handle
  {41d7b45c-8f81-455d-9cfd-ef719eedad37}, !- Construction Name
  ExteriorWall,                           !- Intended Surface Type
  Mass;                                   !- Standards Construction Type

OS:Material,
  {4b62da87-f2ff-4ed9-9e0d-93d41de84acb}, !- Handle
  1IN Stucco,                             !- Name
  Smooth,                                 !- Roughness
  0.0253,                                 !- Thickness {m}
  0.691799999999999,                      !- Conductivity {W/m-K}
  1858,                                   !- Density {kg/m3}
  836.999999999999,                       !- Specific Heat {J/kg-K}
  0.9,                                    !- Thermal Absorptance
  0.92,                                   !- Solar Absorptance
  0.92;                                   !- Visible Absorptance

OS:Material,
  {9d1ecfe9-264b-4918-97b0-9669effae3b8}, !- Handle
  8IN Concrete HW,                        !- Name
  MediumRough,                            !- Roughness
  0.2033,                                 !- Thickness {m}
  1.72959999999999,                       !- Conductivity {W/m-K}
  2242.99999999999,                       !- Density {kg/m3}
  836.999999999999,                       !- Specific Heat {J/kg-K}
  0.9,                                    !- Thermal Absorptance
  0.65,                                   !- Solar Absorptance
  0.65;                                   !- Visible Absorptance

OS:Material,
  {a269e341-1156-47ce-ad99-333f0deb60b3}, !- Handle
  Wall Insulation [31],                   !- Name
  MediumRough,                            !- Roughness
  0.0337000000000001,                     !- Thickness {m}
  0.0432,                                 !- Conductivity {W/m-K}
  91,                                     !- Density {kg/m3}
  836.999999999999,                       !- Specific Heat {J/kg-K}
  0.9,                                    !- Thermal Absorptance
  0.5,                                    !- Solar Absorptance
  0.5;                                    !- Visible Absorptance

OS:Construction,
  {c8973677-1b65-4a82-833f-2434d1fbcfa5}, !- Handle
  ASHRAE 189.1-2009 ExtWall Mass ClimateZone 2, !- Name
  ,                                       !- Surface Rendering Name
  {4b62da87-f2ff-4ed9-9e0d-93d41de84acb}, !- Layer 1
  {9d1ecfe9-264b-4918-97b0-9669effae3b8}, !- Layer 2
  {2845f0b7-69e4-4db1-a313-63ba12eea58b}, !- Layer 3
  {deb24824-6cac-4b05-8aaa-671727fd455f}; !- Layer 4

OS:StandardsInformation:Construction,
  {72adc0f4-717d-49fc-8a56-f7aad9ddb113}, !- Handle
  {c8973677-1b65-4a82-833f-2434d1fbcfa5}, !- Construction Name
  ExteriorWall,                           !- Intended Surface Type
  Mass;                                   !- Standards Construction Type

OS:Material,
  {2845f0b7-69e4-4db1-a313-63ba12eea58b}, !- Handle
  Wall Insulation [35],                   !- Name
  MediumRough,                            !- Roughness
  0.0452,                                 !- Thickness {m}
  0.0432,                                 !- Conductivity {W/m-K}
  91,                                     !- Density {kg/m3}
  836.999999999999,                       !- Specific Heat {J/kg-K}
  0.9,                                    !- Thermal Absorptance
  0.5,                                    !- Solar Absorptance
  0.5;                                    !- Visible Absorptance

OS:Construction,
  {25d32424-dae1-42a0-a21c-696fb96952d0}, !- Handle
  ASHRAE 189.1-2009 ExtWall Mass ClimateZone 3, !- Name
  ,                                       !- Surface Rendering Name
  {4b62da87-f2ff-4ed9-9e0d-93d41de84acb}, !- Layer 1
  {9d1ecfe9-264b-4918-97b0-9669effae3b8}, !- Layer 2
  {ab8d3bdb-3360-451a-95a0-b299381faaf5}, !- Layer 3
  {deb24824-6cac-4b05-8aaa-671727fd455f}; !- Layer 4

OS:StandardsInformation:Construction,
  {d8e48d4a-8960-47f0-84d7-a28e8b311d95}, !- Handle
  {25d32424-dae1-42a0-a21c-696fb96952d0}, !- Construction Name
  ExteriorWall,                           !- Intended Surface Type
  Mass;                                   !- Standards Construction Type

OS:Material,
  {ab8d3bdb-3360-451a-95a0-b299381faaf5}, !- Handle
  Wall Insulation [36],                   !- Name
  MediumRough,                            !- Roughness
  0.0565999999999999,                     !- Thickness {m}
  0.0432,                                 !- Conductivity {W/m-K}
  91,                                     !- Density {kg/m3}
  836.999999999999,                       !- Specific Heat {J/kg-K}
  0.9,                                    !- Thermal Absorptance
  0.5,                                    !- Solar Absorptance
  0.5;                                    !- Visible Absorptance

OS:Construction,
  {76e414b5-d683-4b98-8f3a-1dd47711c198}, !- Handle
  ASHRAE 189.1-2009 ExtWall Mass ClimateZone 4, !- Name
  ,                                       !- Surface Rendering Name
  {4b62da87-f2ff-4ed9-9e0d-93d41de84acb}, !- Layer 1
  {9d1ecfe9-264b-4918-97b0-9669effae3b8}, !- Layer 2
  {b35c5164-bfe2-4236-ab99-2868eba96619}, !- Layer 3
  {deb24824-6cac-4b05-8aaa-671727fd455f}; !- Layer 4

OS:StandardsInformation:Construction,
  {8b269b5e-e007-43ed-b871-8859549a4623}, !- Handle
  {76e414b5-d683-4b98-8f3a-1dd47711c198}, !- Construction Name
  ExteriorWall,                           !- Intended Surface Type
  Mass;                                   !- Standards Construction Type

OS:Material,
  {b35c5164-bfe2-4236-ab99-2868eba96619}, !- Handle
  Wall Insulation [37],                   !- Name
  MediumRough,                            !- Roughness
  0.0680999999999999,                     !- Thickness {m}
  0.0432,                                 !- Conductivity {W/m-K}
  91,                                     !- Density {kg/m3}
  836.999999999999,                       !- Specific Heat {J/kg-K}
  0.9,                                    !- Thermal Absorptance
  0.5,                                    !- Solar Absorptance
  0.5;                                    !- Visible Absorptance

OS:Construction,
  {c08acf56-c6a7-4bd1-9277-3403d9a60d98}, !- Handle
  ASHRAE 189.1-2009 ExtWall Mass ClimateZone 5, !- Name
  ,                                       !- Surface Rendering Name
  {4b62da87-f2ff-4ed9-9e0d-93d41de84acb}, !- Layer 1
  {9d1ecfe9-264b-4918-97b0-9669effae3b8}, !- Layer 2
  {6a94c05d-81de-4b02-b4ae-a3d2451febe3}, !- Layer 3
  {deb24824-6cac-4b05-8aaa-671727fd455f}; !- Layer 4

OS:StandardsInformation:Construction,
  {af7eb12a-7a36-456c-885b-a94f2957e154}, !- Handle
  {c08acf56-c6a7-4bd1-9277-3403d9a60d98}, !- Construction Name
  ExteriorWall,                           !- Intended Surface Type
  Mass;                                   !- Standards Construction Type

OS:Material,
  {6a94c05d-81de-4b02-b4ae-a3d2451febe3}, !- Handle
  Wall Insulation [40],                   !- Name
  MediumRough,                            !- Roughness
  0.0793999999999999,                     !- Thickness {m}
  0.0432,                                 !- Conductivity {W/m-K}
  91,                                     !- Density {kg/m3}
  836.999999999999,                       !- Specific Heat {J/kg-K}
  0.9,                                    !- Thermal Absorptance
  0.5,                                    !- Solar Absorptance
  0.5;                                    !- Visible Absorptance

OS:Construction,
  {3f6d33d2-0ce4-4995-ad75-055d60df03e6}, !- Handle
  ASHRAE 189.1-2009 ExtWall Mass ClimateZone 6, !- Name
  ,                                       !- Surface Rendering Name
  {4b62da87-f2ff-4ed9-9e0d-93d41de84acb}, !- Layer 1
  {9d1ecfe9-264b-4918-97b0-9669effae3b8}, !- Layer 2
  {2e8948af-b63e-483c-a51a-cd157ae51ee4}, !- Layer 3
  {deb24824-6cac-4b05-8aaa-671727fd455f}; !- Layer 4

OS:StandardsInformation:Construction,
  {f4a926e4-1a82-4a05-bbcc-55b2501de438}, !- Handle
  {3f6d33d2-0ce4-4995-ad75-055d60df03e6}, !- Construction Name
  ExteriorWall,                           !- Intended Surface Type
  Mass;                                   !- Standards Construction Type

OS:Material,
  {2e8948af-b63e-483c-a51a-cd157ae51ee4}, !- Handle
  Wall Insulation [42],                   !- Name
  MediumRough,                            !- Roughness
  0.0913999999999999,                     !- Thickness {m}
  0.0432,                                 !- Conductivity {W/m-K}
  91,                                     !- Density {kg/m3}
  836.999999999999,                       !- Specific Heat {J/kg-K}
  0.9,                                    !- Thermal Absorptance
  0.5,                                    !- Solar Absorptance
  0.5;                                    !- Visible Absorptance

OS:Construction,
  {a0f8111e-275a-4877-a088-cf092267aa48}, !- Handle
  ASHRAE 189.1-2009 ExtWall Mass ClimateZone 7-8, !- Name
  ,                                       !- Surface Rendering Name
  {4b62da87-f2ff-4ed9-9e0d-93d41de84acb}, !- Layer 1
  {9d1ecfe9-264b-4918-97b0-9669effae3b8}, !- Layer 2
  {eba69b0c-f193-474f-930b-999a4c8be309}, !- Layer 3
  {deb24824-6cac-4b05-8aaa-671727fd455f}; !- Layer 4

OS:StandardsInformation:Construction,
  {c94095b4-e56d-4cb1-838e-3b414a6fed7f}, !- Handle
  {a0f8111e-275a-4877-a088-cf092267aa48}, !- Construction Name
  ExteriorWall,                           !- Intended Surface Type
  Mass;                                   !- Standards Construction Type

OS:Material,
  {eba69b0c-f193-474f-930b-999a4c8be309}, !- Handle
  Wall Insulation [44],                   !- Name
  MediumRough,                            !- Roughness
  0.1104,                                 !- Thickness {m}
  0.0432,                                 !- Conductivity {W/m-K}
  91,                                     !- Density {kg/m3}
  836.999999999999,                       !- Specific Heat {J/kg-K}
  0.9,                                    !- Thermal Absorptance
  0.5,                                    !- Solar Absorptance
  0.5;                                    !- Visible Absorptance

OS:Construction,
  {7efd221c-04b3-4f2e-bf87-048fd4319333}, !- Handle
  ASHRAE 189.1-2009 ExtWall Mass ClimateZone alt-res 1, !- Name
  ,                                       !- Surface Rendering Name
  {4b62da87-f2ff-4ed9-9e0d-93d41de84acb}, !- Layer 1
  {9d1ecfe9-264b-4918-97b0-9669effae3b8}, !- Layer 2
  {2845f0b7-69e4-4db1-a313-63ba12eea58b}, !- Layer 3
  {deb24824-6cac-4b05-8aaa-671727fd455f}; !- Layer 4

OS:StandardsInformation:Construction,
  {b828edec-f699-41e0-853f-dc90d5f79ce0}, !- Handle
  {7efd221c-04b3-4f2e-bf87-048fd4319333}, !- Construction Name
  ExteriorWall,                           !- Intended Surface Type
  Mass;                                   !- Standards Construction Type

OS:Construction,
  {0f28cbc4-7fe3-415c-af97-c1106c24553e}, !- Handle
  ASHRAE 189.1-2009 ExtWall Mass ClimateZone alt-res 2, !- Name
  ,                                       !- Surface Rendering Name
  {4b62da87-f2ff-4ed9-9e0d-93d41de84acb}, !- Layer 1
  {9d1ecfe9-264b-4918-97b0-9669effae3b8}, !- Layer 2
  {ab8d3bdb-3360-451a-95a0-b299381faaf5}, !- Layer 3
  {deb24824-6cac-4b05-8aaa-671727fd455f}; !- Layer 4

OS:StandardsInformation:Construction,
  {8ae6ef88-090d-4c18-ad55-5bd0f263c17f}, !- Handle
  {0f28cbc4-7fe3-415c-af97-c1106c24553e}, !- Construction Name
  ExteriorWall,                           !- Intended Surface Type
  Mass;                                   !- Standards Construction Type

OS:Construction,
  {c85eab28-3b21-4447-b02f-69e6cc00ac32}, !- Handle
  ASHRAE 189.1-2009 ExtWall Mass ClimateZone alt-res 3, !- Name
  ,                                       !- Surface Rendering Name
  {4b62da87-f2ff-4ed9-9e0d-93d41de84acb}, !- Layer 1
  {9d1ecfe9-264b-4918-97b0-9669effae3b8}, !- Layer 2
  {b35c5164-bfe2-4236-ab99-2868eba96619}, !- Layer 3
  {deb24824-6cac-4b05-8aaa-671727fd455f}; !- Layer 4

OS:StandardsInformation:Construction,
  {eaec903e-90c6-4c9f-9d40-4654b74d51e8}, !- Handle
  {c85eab28-3b21-4447-b02f-69e6cc00ac32}, !- Construction Name
  ExteriorWall,                           !- Intended Surface Type
  Mass;                                   !- Standards Construction Type

OS:Construction,
  {f2fa0146-3226-48a6-b037-eb14d8cf990f}, !- Handle
  ASHRAE 189.1-2009 ExtWall Mass ClimateZone alt-res 4, !- Name
  ,                                       !- Surface Rendering Name
  {4b62da87-f2ff-4ed9-9e0d-93d41de84acb}, !- Layer 1
  {9d1ecfe9-264b-4918-97b0-9669effae3b8}, !- Layer 2
  {6a94c05d-81de-4b02-b4ae-a3d2451febe3}, !- Layer 3
  {deb24824-6cac-4b05-8aaa-671727fd455f}; !- Layer 4

OS:StandardsInformation:Construction,
  {c7f259e0-e8b2-492b-87b0-800562e63af4}, !- Handle
  {f2fa0146-3226-48a6-b037-eb14d8cf990f}, !- Construction Name
  ExteriorWall,                           !- Intended Surface Type
  Mass;                                   !- Standards Construction Type

OS:Construction,
  {1b219832-6a0f-4c7f-8f1a-6198ee048c8a}, !- Handle
  ASHRAE 189.1-2009 ExtWall Mass ClimateZone alt-res 5, !- Name
  ,                                       !- Surface Rendering Name
  {4b62da87-f2ff-4ed9-9e0d-93d41de84acb}, !- Layer 1
  {9d1ecfe9-264b-4918-97b0-9669effae3b8}, !- Layer 2
  {2e8948af-b63e-483c-a51a-cd157ae51ee4}, !- Layer 3
  {deb24824-6cac-4b05-8aaa-671727fd455f}; !- Layer 4

OS:StandardsInformation:Construction,
  {edc57be3-ad16-4341-891d-fa6a14180fe9}, !- Handle
  {1b219832-6a0f-4c7f-8f1a-6198ee048c8a}, !- Construction Name
  ExteriorWall,                           !- Intended Surface Type
  Mass;                                   !- Standards Construction Type

OS:Construction,
  {808cae2b-9fbb-41ee-94bb-e66615212aae}, !- Handle
  ASHRAE 189.1-2009 ExtWall Mass ClimateZone alt-res 6, !- Name
  ,                                       !- Surface Rendering Name
  {4b62da87-f2ff-4ed9-9e0d-93d41de84acb}, !- Layer 1
  {9d1ecfe9-264b-4918-97b0-9669effae3b8}, !- Layer 2
  {eba69b0c-f193-474f-930b-999a4c8be309}, !- Layer 3
  {deb24824-6cac-4b05-8aaa-671727fd455f}; !- Layer 4

OS:StandardsInformation:Construction,
  {66a5cb20-22d0-4993-831d-af77d65971da}, !- Handle
  {808cae2b-9fbb-41ee-94bb-e66615212aae}, !- Construction Name
  ExteriorWall,                           !- Intended Surface Type
  Mass;                                   !- Standards Construction Type

OS:Construction,
  {e2723e4d-1664-477e-9883-9e85241c621e}, !- Handle
  ASHRAE 189.1-2009 ExtWall Mass ClimateZone alt-res 7, !- Name
  ,                                       !- Surface Rendering Name
  {4b62da87-f2ff-4ed9-9e0d-93d41de84acb}, !- Layer 1
  {9d1ecfe9-264b-4918-97b0-9669effae3b8}, !- Layer 2
  {eba69b0c-f193-474f-930b-999a4c8be309}, !- Layer 3
  {deb24824-6cac-4b05-8aaa-671727fd455f}; !- Layer 4

OS:StandardsInformation:Construction,
  {6c9ccf24-d57e-4f42-81d8-a17a85d6878a}, !- Handle
  {e2723e4d-1664-477e-9883-9e85241c621e}, !- Construction Name
  ExteriorWall,                           !- Intended Surface Type
  Mass;                                   !- Standards Construction Type

OS:Construction,
  {92d8bbdb-84d5-4258-bcda-adfa1bd0b090}, !- Handle
  ASHRAE 189.1-2009 ExtWall Mass ClimateZone alt-res 8, !- Name