
OS:Version,
  {7585959c-8bbd-4026-a728-6f643d06188b}, !- Handle
  1.2.3;                                  !- Version Identifier

OS:Construction,
  {859c070e-f593-4295-aaef-9a423c958d20}, !- Handle
  ASHRAE 189.1-2009 AtticFloor ClimateZone 1-8, !- Name
  ,                                       !- Surface Rendering Name
  {bc56e074-2db1-427f-a892-0d471eac242c}, !- Layer 1
  {eecfa7a8-6712-4c71-92bb-0eb3acdb0030}, !- Layer 2
  {bc56e074-2db1-427f-a892-0d471eac242c}; !- Layer 3

OS:StandardsInformation:Construction,
  {ae9b956d-4c3d-4858-95fd-8c61593e18fb}, !- Handle
  {859c070e-f593-4295-aaef-9a423c958d20}, !- Construction Name
  AtticFloor,                             !- Intended Surface Type
  WoodFramed;                             !- Standards Construction Type

OS:Material,
  {bc56e074-2db1-427f-a892-0d471eac242c}, !- Handle
  1/2IN Gypsum,                           !- Name
  Smooth,                                 !- Roughness
  0.0127,                                 !- Thickness {m}
  0.16,                                   !- Conductivity {W/m-K}
  784.9,                                  !- Density {kg/m3}
  830.000000000001,                       !- Specific Heat {J/kg-K}
  0.9,                                    !- Thermal Absorptance
  0.92,                                   !- Solar Absorptance
  0.92;                                   !- Visible Absorptance

OS:Material,
  {eecfa7a8-6712-4c71-92bb-0eb3acdb0030}, !- Handle
  AtticFloor Insulation,                  !- Name
  MediumRough,                            !- Roughness
  0.2379,                                 !- Thickness {m}
  0.049,                                  !- Conductivity {W/m-K}
  265,                                    !- Density {kg/m3}
  836.800000000001,                       !- Specific Heat {J/kg-K}
  0.9,                                    !- Thermal Absorptance
  0.7,                                    !- Solar Absorptance
  0.7;                                    !- Visible Absorptance

OS:Construction,
  {3ed42603-cd67-491f-beda-3345555ff963}, !- Handle
  ASHRAE 189.1-2009 ExtRoof IEAD ClimateZone 1, !- Name
  ,                                       !- Surface Rendering Name
  {f081036b-a8d7-47b1-bba7-b229224bb9ea}, !- Layer 1
  {30f23502-d72a-40a0-b2fa-7f656ebfda8a}, !- Layer 2
  {f7cb2de4-7749-4b3b-8c10-b9d564b0491d}; !- Layer 3

OS:StandardsInformation:Construction,
  {25cb0512-6f18-47c4-85f4-f1574cfa9d58}, !- Handle
  {3ed42603-cd67-491f-beda-3345555ff963}, !- Construction Name
  ExteriorRoof,                           !- Intended Surface Type
  IEAD;                                   !- Standards Construction Type

OS:Material,
  {f081036b-a8d7-47b1-bba7-b229224bb9ea}, !- Handle
  Roof Membrane,                          !- Name
  VeryRough,                              !- Roughness
  0.0095,                                 !- Thickness {m}
  0.16,                                   !- Conductivity {W/m-K}
  1121.29,                                !- Density {kg/m3}
  1460,                                   !- Specific Heat {J/kg-K}
  0.9,                                    !- Thermal Absorptance
  0.7,                                    !- Solar Absorptance
  0.7;                                    !- Visible Absorptance

OS:Material,
  {30f23502-d72a-40a0-b2fa-7f656ebfda8a}, !- Handle
  Roof Insulation [18],                   !- Name
  MediumRough,                            !- Roughness
  0.1693,                                 !- Thickness {m}
  0.049,                                  !- Conductivity {W/m-K}
  265,                                    !- Density {kg/m3}
  836.800000000001,                       !- Specific Heat {J/kg-K}
  0.9,                                    !- Thermal Absorptance
  0.7,                                    !- Solar Absorptance
  0.7;                                    !- Visible Absorptance

OS:Material,
  {f7cb2de4-7749-4b3b-8c10-b9d564b0491d}, !- Handle
  Metal Decking,                          !- Name
  MediumSmooth,                           !- Roughness
  0.0015,                                 !- Thickness {m}
  45.006,                                 !- Conductivity {W/m-K}
  7680,                                   !- Density {kg/m3}
  418.4,                                  !- Specific Heat {J/kg-K}
  0.9,                                    !- Thermal Absorptance
  0.7,                                    !- Solar Absorptance
  0.3;                                    !- Visible Absorptance

OS:Construction,
  {62d32ece-9f23-42e2-9a7c-784304192cb0}, !- Handle
  ASHRAE 189.1-2009 ExtRoof IEAD ClimateZone 2-5, !- Name
  ,                                       !- Surface Rendering Name
  {f081036b-a8d7-47b1-bba7-b229224bb9ea}, !- Layer 1
  {531fe1ad-64d9-41f7-9f85-28a117b3c9be}, !- Layer 2
  {f7cb2de4-7749-4b3b-8c10-b9d564b0491d}; !- Layer 3

OS:StandardsInformation:Construction,
  {9e32cab9-4cf2-495b-8f75-b35a8d61652c}, !- Handle
  {62d32ece-9f23-42e2-9a7c-784304192cb0}, !- Construction Name
  ExteriorRoof,                           !- Intended Surface Type
  IEAD;                                   !- Standards Construction Type

OS:Material,
  {531fe1ad-64d9-41f7-9f85-28a117b3c9be}, !- Handle
  Roof Insulation [21],                   !- Name
  MediumRough,                            !- Roughness
  0.2105,                                 !- Thickness {m}
  0.049,                                  !- Conductivity {W/m-K}
  265,                                    !- Density {kg/m3}
  836.800000000001,                       !- Specific Heat {J/kg-K}
  0.9,                                    !- Thermal Absorptance
  0.7,                                    !- Solar Absorptance
  0.7;                                    !- Visible Absorptance

OS:Construction,
  {008cc5e8-aabe-4279-ac4e-b7433456f0ec}, !- Handle
  ASHRAE 189.1-2009 ExtRoof IEAD ClimateZone 6, !- Name
  ,                                       !- Surface Rendering Name
  {f081036b-a8d7-47b1-bba7-b229224bb9ea}, !- Layer 1
  {2c73d3ed-398f-414a-9e51-6d8ee564422b}, !- Layer 2
  {f7cb2de4-7749-4b3b-8c10-b9d564b0491d}; !- Layer 3

OS:StandardsInformation:Construction,
  {6db08a7e-50f6-415e-ba18-978631aa1678}, !- Handle
  {008cc5e8-aabe-4279-ac4e-b7433456f0ec}, !- Construction Name
  ExteriorRoof,                           !- Intended Surface Type
  IEAD;                                   !- Standards Construction Type

OS:Material,
  {2c73d3ed-398f-414a-9e51-6d8ee564422b}, !- Handle
  Roof Insulation [24],                   !- Name
  MediumRough,                            !- Roughness
  0.260100000000001,                      !- Thickness {m}
  0.049,                                  !- Conductivity {W/m-K}
  265,                                    !- Density {kg/m3}
  836.800000000001,                       !- Specific Heat {J/kg-K}
  0.9,                                    !- Thermal Absorptance
  0.7,                                    !- Solar Absorptance
  0.7;                                    !- Visible Absorptance

OS:Construction,
  {d2e542f6-414f-44f1-8814-7dd2cc68fb85}, !- Handle
  ASHRAE 189.1-2009 ExtRoof IEAD ClimateZone 7-8, !- Name
  ,                                       !- Surface Rendering Name
  {f081036b-a8d7-47b1-bba7-b229224bb9ea}, !- Layer 1
  {23c1fabf-5893-4419-9886-061f162016e7}, !- Layer 2
  {f7cb2de4-7749-4b3b-8c10-b9d564b0491d}; !- Layer 3

OS:StandardsInformation:Construction,
  {fbbd17b5-d448-4fe6-9341-a59ee2d4ce6e}, !- Handle
  {d2e542f6-414f-44f1-8814-7dd2cc68fb85}, !- Construction Name
  ExteriorRoof,                           !- Intended Surface Type
  IEAD;                                   !- Standards Construction Type

OS:Material,
  {23c1fabf-5893-4419-9886-061f162016e7}, !- Handle
  Roof Insulation [26],                   !- Name
  MediumRough,                            !- Roughness
  0.2941,                                 !- Thickness {m}
  0.049,                                  !- Conductivity {W/m-K}
  265,                                    !- Density {kg/m3}
  836.800000000001,                       !- Specific Heat {J/kg-K}
  0.9,                                    !- Thermal Absorptance
  0.7,                                    !- Solar Absorptance
  0.7;                                    !- Visible Absorptance

OS:Construction,
  {9133cfee-cfc5-4b11-a0f3-58b3416ca288}, !- Handle
  ASHRAE 189.1-2009 ExtRoof Metal ClimateZone 1, !- Name
  ,                                       !- Surface Rendering Name
  {63de9e84-c8bc-4379-a4ba-4002a837978e}, !- Layer 1
  {6c58b3e9-a02e-4947-98f4-5efce5c77fea}; !- Layer 2

OS:StandardsInformation:Construction,
  {86a1d6c9-2d23-4348-8559-bf9019096782}, !- Handle
  {9133cfee-cfc5-4b11-a0f3-58b3416ca288}, !- Construction Name
  ExteriorRoof,                           !- Intended Surface Type
  Metal;                                  !- Standards Construction Type

OS:Material,
  {63de9e84-c8bc-4379-a4ba-4002a837978e}, !- Handle
  Metal Roofing,                          !- Name
  MediumSmooth,                           !- Roughness
  0.0015,                                 !- Thickness {m}
  45.006,                                 !- Conductivity {W/m-K}
  7680,                                   !- Density {kg/m3}
  418.4,                                  !- Specific Heat {J/kg-K}
  0.9,                                    !- Thermal Absorptance
  0.3,                                    !- Solar Absorptance
  0.3;                                    !- Visible Absorptance

OS:Material,
  {6c58b3e9-a02e-4947-98f4-5efce5c77fea}, !- Handle
  Roof Insulation [19],                   !- Name
  MediumRough,                            !- Roughness
  0.1868,                                 !- Thickness {m}
  0.049,                                  !- Conductivity {W/m-K}
  265,                                    !- Density {kg/m3}
  836.800000000001,                       !- Specific Heat {J/kg-K}
  0.9,                                    !- Thermal Absorptance
  0.7,                                    !- Solar Absorptance
  0.7;                                    !- Visible Absorptance

OS:Construction,
  {12fde6a6-e735-4001-816c-3a0cf35c5aa9}, !- Handle
  ASHRAE 189.1-2009 ExtRoof Metal ClimateZone 2-5, !- Name
  ,                                       !- Surface Rendering Name
  {63de9e84-c8bc-4379-a4ba-4002a837978e}, !- Layer 1
  {ebedc09a-8a8c-43cd-81ba-03c02f4750bf}; !- Layer 2

OS:StandardsInformation:Construction,
  {624d801e-ef61-4ecf-9efa-1ef9c943ab49}, !- Handle
  {12fde6a6-e735-4001-816c-3a0cf35c5aa9}, !- Construction Name
  ExteriorRoof,                           !- Intended Surface Type
  Metal;                                  !- Standards Construction Type

OS:Material,
  {ebedc09a-8a8c-43cd-81ba-03c02f4750bf}, !- Handle
  Roof Insulation [22],                   !- Name
  MediumRough,                            !- Roughness
  0.2358,                                 !- Thickness {m}
  0.049,                                  !- Conductivity {W/m-K}
  265,                                    !- Density {kg/m3}
  836.800000000001,                       !- Specific Heat {J/kg-K}
  0.9,                                    !- Thermal Absorptance
  0.7,                                    !- Solar Absorptance
  0.7;                                    !- Visible Absorptance

OS:Construction,
  {b826fb64-4096-4914-92ea-54e7f646087e}, !- Handle
  ASHRAE 189.1-2009 ExtRoof Metal ClimateZone 6, !- Name
  ,                                       !- Surface Rendering Name
  {63de9e84-c8bc-4379-a4ba-4002a837978e}, !- Layer 1
  {08b03c02-db43-40a2-997f-5293a7d6d874}; !- Layer 2

OS:StandardsInformation:Construction,
  {80815bf4-359f-4298-81b6-34d964ba8e00}, !- Handle
  {b826fb64-4096-4914-92ea-54e7f646087e}, !- Construction Name
  ExteriorRoof,                           !- Intended Surface Type
  Metal;                                  !- Standards Construction Type

OS:Material,
  {08b03c02-db43-40a2-997f-5293a7d6d874}, !- Handle
  Roof Insulation [25],                   !- Name
  MediumRough,                            !- Roughness
  0.263,                                  !- Thickness {m}
  0.049,                                  !- Conductivity {W/m-K}
  265,                                    !- Density {kg/m3}
  836.800000000001,                       !- Specific Heat {J/kg-K}
  0.9,                                    !- Thermal Absorptance
  0.7,                                    !- Solar Absorptance
  0.7;                                    !- Visible Absorptance

OS:Construction,
  {458731af-d20e-496c-bf76-cffddde6a884}, !- Handle
  ASHRAE 189.1-2009 ExtRoof Metal ClimateZone 7-8, !- Name
  ,                                       !- Surface Rendering Name
  {63de9e84-c8bc-4379-a4ba-4002a837978e}, !- Layer 1
  {b613f82a-26f8-4b3e-af40-da9ac4dbc80a}; !- Layer 2

OS:StandardsInformation:Construction,
  {531f095e-75be-4e99-954d-6bf0b3ba8203}, !- Handle
  {458731af-d20e-496c-bf76-cffddde6a884}, !- Construction Name
  ExteriorRoof,                           !- Intended Surface Type
  Metal;                                  !- Standards Construction Type

OS:Material,
  {b613f82a-26f8-4b3e-af40-da9ac4dbc80a}, !- Handle
  Roof Insulation [27],                   !- Name
  MediumRough,                            !- Roughness
  0.297000000000001,                      !- Thickness {m}
  0.049,                                  !- Conductivity {W/m-K}
  265,                                    !- Density {kg/m3}
  836.800000000001,                       !- Specific Heat {J/kg-K}
  0.9,                                    !- Thermal Absorptance
  0.7,                                    !- Solar Absorptance
  0.7;                                    !- Visible Absorptance

OS:Construction,
  {a928bc19-f2b7-419d-8d80-0645be086576}, !- Handle
  ASHRAE 189.1-2009 ExtWall Mass ClimateZone 1, !- Name
  ,                                       !- Surface Rendering Name
  {33c3856f-f2e1-49f4-b9e8-6b896080656d}, !- Layer 1
  {ccb10d82-1ecd-4cc4-a889-f586362f20bc}, !- Layer 2
  {c2aa9393-35a5-49fd-b6ef-219259f95795}, !- Layer 3
  {bc56e074-2db1-427f-a892-0d471eac242c}; !- Layer 4

OS:StandardsInformation:Construction,
  {609ab382-9ac6-465f-a9b5-468fa28dfe62}, !- Handle
  {a928bc19-f2b7-419d-8d80-0645be086576}, !- Construction Name
  ExteriorWall,                           !- Intended Surface Type
  Mass;                                   !- Standards Construction Type

OS:Material,
  {33c3856f-f2e1-49f4-b9e8-6b896080656d}, !- Handle
  1IN Stucco,                             !- Name
  Smooth,                                 !- Roughness
  0.0253,                                 !- Thickness {m}
  0.691799999999999,                      !- Conductivity {W/m-K}
  1858,                                   !- Density {kg/m3}
  836.999999999999,                       !- Specific Heat {J/kg-K}
  0.9,                                    !- Thermal Absorptance
  0.92,                                   !- Solar Absorptance
  0.92;                                   !- Visible Absorptance

OS:Material,
  {ccb10d82-1ecd-4cc4-a889-f586362f20bc}, !- Handle
  8IN Concrete HW,                        !- Name
  MediumRough,                            !- Roughness
  0.2033,                                 !- Thickness {m}
  1.72959999999999,                       !- Conductivity {W/m-K}
  2242.99999999999,                       !- Density {kg/m3}
  836.999999999999,                       !- Specific Heat {J/kg-K}
  0.9,                                    !- Thermal Absorptance
  0.65,                                   !- Solar Absorptance
  0.65;                                   !- Visible Absorptance

OS:Material,
  {c2aa9393-35a5-49fd-b6ef-219259f95795}, !- Handle
  Wall Insulation [31],                   !- Name
  MediumRough,                            !- Roughness
  0.0337000000000001,                     !- Thickness {m}
  0.0432,                                 !- Conductivity {W/m-K}
  91,                                     !- Density {kg/m3}
  836.999999999999,                       !- Specific Heat {J/kg-K}
  0.9,                                    !- Thermal Absorptance
  0.5,                                    !- Solar Absorptance
  0.5;                                    !- Visible Absorptance

OS:Construction,
  {c8fbf6ce-e325-4f28-b8ff-4e4351ba5f93}, !- Handle
  ASHRAE 189.1-2009 ExtWall Mass ClimateZone 2, !- Name
  ,                                       !- Surface Rendering Name
  {33c3856f-f2e1-49f4-b9e8-6b896080656d}, !- Layer 1
  {ccb10d82-1ecd-4cc4-a889-f586362f20bc}, !- Layer 2
  {6994da23-85a2-41e4-a223-8f81d50ec20d}, !- Layer 3
  {bc56e074-2db1-427f-a892-0d471eac242c}; !- Layer 4

OS:StandardsInformation:Construction,
  {06f18592-f399-4b40-ac74-176b34e106d4}, !- Handle
  {c8fbf6ce-e325-4f28-b8ff-4e4351ba5f93}, !- Construction Name
  ExteriorWall,                           !- Intended Surface Type
  Mass;                                   !- Standards Construction Type

OS:Material,
  {6994da23-85a2-41e4-a223-8f81d50ec20d}, !- Handle
  Wall Insulation [35],                   !- Name
  MediumRough,                            !- Roughness
  0.0452,                                 !- Thickness {m}
  0.0432,                                 !- Conductivity {W/m-K}
  91,                                     !- Density {kg/m3}
  836.999999999999,                       !- Specific Heat {J/kg-K}
  0.9,                                    !- Thermal Absorptance
  0.5,                                    !- Solar Absorptance
  0.5;                                    !- Visible Absorptance

OS:Construction,
  {c890f089-4ae5-4af7-9634-236bb9ae7cea}, !- Handle
  ASHRAE 189.1-2009 ExtWall Mass ClimateZone 3, !- Name
  ,                                       !- Surface Rendering Name
  {33c3856f-f2e1-49f4-b9e8-6b896080656d}, !- Layer 1
  {ccb10d82-1ecd-4cc4-a889-f586362f20bc}, !- Layer 2
  {e8c3e2c0-5e05-4b73-be55-c19ab8ed9135}, !- Layer 3
  {bc56e074-2db1-427f-a892-0d471eac242c}; !- Layer 4

OS:StandardsInformation:Construction,
  {ba33fea4-2a6b-4ef5-ab6f-8b089afa121b}, !- Handle
  {c890f089-4ae5-4af7-9634-236bb9ae7cea}, !- Construction Name
  ExteriorWall,                           !- Intended Surface Type
  Mass;                                   !- Standards Construction Type

OS:Material,
  {e8c3e2c0-5e05-4b73-be55-c19ab8ed9135}, !- Handle
  Wall Insulation [36],                   !- Name
  MediumRough,                            !- Roughness
  0.0565999999999999,                     !- Thickness {m}
  0.0432,                                 !- Conductivity {W/m-K}
  91,                                     !- Density {kg/m3}
  836.999999999999,                       !- Specific Heat {J/kg-K}
  0.9,                                    !- Thermal Absorptance
  0.5,                                    !- Solar Absorptance
  0.5;                                    !- Visible Absorptance

OS:Construction,
  {d573b329-2237-4c6e-b690-87756acc882f}, !- Handle
  ASHRAE 189.1-2009 ExtWall Mass ClimateZone 4, !- Name
  ,                                       !- Surface Rendering Name
  {33c3856f-f2e1-49f4-b9e8-6b896080656d}, !- Layer 1
  {ccb10d82-1ecd-4cc4-a889-f586362f20bc}, !- Layer 2
  {4de958a3-3b50-4a1a-ba2a-a8d3c22fed5d}, !- Layer 3
  {bc56e074-2db1-427f-a892-0d471eac242c}; !- Layer 4

OS:StandardsInformation:Construction,
  {5912ebe1-0b4d-4e01-894e-384dfd650565}, !- Handle
  {d573b329-2237-4c6e-b690-87756acc882f}, !- Construction Name
  ExteriorWall,                           !- Intended Surface Type
  Mass;                                   !- Standards Construction Type

OS:Material,
  {4de958a3-3b50-4a1a-ba2a-a8d3c22fed5d}, !- Handle
  Wall Insulation [37],                   !- Name
  MediumRough,                            !- Roughness
  0.0680999999999999,                     !- Thickness {m}
  0.0432,                                 !- Conductivity {W/m-K}
  91,                                     !- Density {kg/m3}
  836.999999999999,                       !- Specific Heat {J/kg-K}
  0.9,                                    !- Thermal Absorptance
  0.5,                                    !- Solar Absorptance
  0.5;                                    !- Visible Absorptance

OS:Construction,
  {46cbd398-d411-4b07-9967-598bfbdec54e}, !- Handle
  ASHRAE 189.1-2009 ExtWall Mass ClimateZone 5, !- Name
  ,                                       !- Surface Rendering Name
  {33c3856f-f2e1-49f4-b9e8-6b896080656d}, !- Layer 1
  {ccb10d82-1ecd-4cc4-a889-f586362f20bc}, !- Layer 2
  {570994e8-a093-4123-8950-cd0d68221620}, !- Layer 3
  {bc56e074-2db1-427f-a892-0d471eac242c}; !- Layer 4

OS:StandardsInformation:Construction,
  {293da65a-9ae1-4adf-b9e5-63e29774c9bc}, !- Handle
  {46cbd398-d411-4b07-9967-598bfbdec54e}, !- Construction Name
  ExteriorWall,                           !- Intended Surface Type
  Mass;                                   !- Standards Construction Type

OS:Material,
  {570994e8-a093-4123-8950-cd0d68221620}, !- Handle
  Wall Insulation [40],                   !- Name
  MediumRough,                            !- Roughness
  0.0793999999999999,                     !- Thickness {m}
  0.0432,                                 !- Conductivity {W/m-K}
  91,                                     !- Density {kg/m3}
  836.999999999999,                       !- Specific Heat {J/kg-K}
  0.9,                                    !- Thermal Absorptance
  0.5,                                    !- Solar Absorptance
  0.5;                                    !- Visible Absorptance

OS:Construction,
  {1082369b-43d4-4f07-ad88-2f8a45f6ca00}, !- Handle
  ASHRAE 189.1-2009 ExtWall Mass ClimateZone 6, !- Name
  ,                                       !- Surface Rendering Name
  {33c3856f-f2e1-49f4-b9e8-6b896080656d}, !- Layer 1
  {ccb10d82-1ecd-4cc4-a889-f586362f20bc}, !- Layer 2
  {3afa40c9-1d52-45d5-9ae5-a2bfa540b44a}, !- Layer 3
  {bc56e074-2db1-427f-a892-0d471eac242c}; !- Layer 4

OS:StandardsInformation:Construction,
  {cff0dc9f-fdda-419d-8368-1130b9063b34}, !- Handle
  {1082369b-43d4-4f07-ad88-2f8a45f6ca00}, !- Construction Name
  ExteriorWall,                           !- Intended Surface Type
  Mass;                                   !- Standards Construction Type

OS:Material,
  {3afa40c9-1d52-45d5-9ae5-a2bfa540b44a}, !- Handle
  Wall Insulation [42],                   !- Name
  MediumRough,                            !- Roughness
  0.0913999999999999,                     !- Thickness {m}
  0.0432,                                 !- Conductivity {W/m-K}
  91,                                     !- Density {kg/m3}
  836.999999999999,                       !- Specific Heat {J/kg-K}
  0.9,                                    !- Thermal Absorptance
  0.5,                                    !- Solar Absorptance
  0.5;                                    !- Visible Absorptance

OS:Construction,
  {9ad4f5a3-15b7-48a6-a3e2-836ddc42b840}, !- Handle
  ASHRAE 189.1-2009 ExtWall Mass ClimateZone 7-8, !- Name
  ,                                       !- Surface Rendering Name
  {33c3856f-f2e1-49f4-b9e8-6b896080656d}, !- Layer 1
  {ccb10d82-1ecd-4cc4-a889-f586362f20bc}, !- Layer 2
  {341cdcb8-a5e4-45bd-a74d-c86005e50f5a}, !- Layer 3
  {bc56e074-2db1-427f-a892-0d471eac242c}; !- Layer 4

OS:StandardsInformation:Construction,
  {ade8e4bf-9c9e-4d31-8135-44fe29d669c7}, !- Handle
  {9ad4f5a3-15b7-48a6-a3e2-836ddc42b840}, !- Construction Name
  ExteriorWall,                           !- Intended Surface Type
  Mass;                                   !- Standards Construction Type

OS:Material,
  {341cdcb8-a5e4-45bd-a74d-c86005e50f5a}, !- Handle
  Wall Insulation [44],                   !- Name
  MediumRough,                            !- Roughness
  0.1104,                                 !- Thickness {m}
  0.0432,                                 !- Conductivity {W/m-K}
  91,                                     !- Density {kg/m3}
  836.999999999999,                       !- Specific Heat {J/kg-K}
  0.9,                                    !- Thermal Absorptance
  0.5,                                    !- Solar Absorptance
  0.5;                                    !- Visible Absorptance

OS:Construction,
  {cd244329-0598-4554-93b7-796c0033596e}, !- Handle
  ASHRAE 189.1-2009 ExtWall Mass ClimateZone alt-res 1, !- Name
  ,                                       !- Surface Rendering Name
  {33c3856f-f2e1-49f4-b9e8-6b896080656d}, !- Layer 1
  {ccb10d82-1ecd-4cc4-a889-f586362f20bc}, !- Layer 2
  {6994da23-85a2-41e4-a223-8f81d50ec20d}, !- Layer 3
  {bc56e074-2db1-427f-a892-0d471eac242c}; !- Layer 4

OS:StandardsInformation:Construction,
  {9fad7fa9-6738-43fe-ac92-c35d913c9adf}, !- Handle
  {cd244329-0598-4554-93b7-796c0033596e}, !- Construction Name
  ExteriorWall,                           !- Intended Surface Type
  Mass;                                   !- Standards Construction Type

OS:Construction,
  {6e923ab7-d599-4af7-a381-caa97ad9a499}, !- Handle
  ASHRAE 189.1-2009 ExtWall Mass ClimateZone alt-res 2, !- Name
  ,                                       !- Surface Rendering Name
  {33c3856f-f2e1-49f4-b9e8-6b896080656d}, !- Layer 1
  {ccb10d82-1ecd-4cc4-a889-f586362f20bc}, !- Layer 2
  {e8c3e2c0-5e05-4b73-be55-c19ab8ed9135}, !- Layer 3
  {bc56e074-2db1-427f-a892-0d471eac242c}; !- Layer 4

OS:StandardsInformation:Construction,
  {59917171-fc0b-4ff4-afd4-491822538a97}, !- Handle
  {6e923ab7-d599-4af7-a381-caa97ad9a499}, !- Construction Name
  ExteriorWall,                           !- Intended Surface Type
  Mass;                                   !- Standards Construction Type

OS:Construction,
  {baadac29-b0fc-431f-be44-18795333c13f}, !- Handle
  ASHRAE 189.1-2009 ExtWall Mass ClimateZone alt-res 3, !- Name
  ,                                       !- Surface Rendering Name
  {33c3856f-f2e1-49f4-b9e8-6b896080656d}, !- Layer 1
  {ccb10d82-1ecd-4cc4-a889-f586362f20bc}, !- Layer 2
  {4de958a3-3b50-4a1a-ba2a-a8d3c22fed5d}, !- Layer 3
  {bc56e074-2db1-427f-a892-0d471eac242c}; !- Layer 4

OS:StandardsInformation:Construction,
  {161a233c-bb04-4027-92c7-66af43efbc7f}, !- Handle
  {baadac29-b0fc-431f-be44-18795333c13f}, !- Construction Name
  ExteriorWall,                           !- Intended Surface Type
  Mass;                                   !- Standards Construction Type

OS:Construction,
  {e2ba2b1f-5c1b-4fa3-bfc9-12ef3be51851}, !- Handle
  ASHRAE 189.1-2009 ExtWall Mass ClimateZone alt-res 4, !- Name
  ,                                       !- Surface Rendering Name
  {33c3856f-f2e1-49f4-b9e8-6b896080656d}, !- Layer 1
  {ccb10d82-1ecd-4cc4-a889-f586362f20bc}, !- Layer 2
  {570994e8-a093-4123-8950-cd0d68221620}, !- Layer 3
  {bc56e074-2db1-427f-a892-0d471eac242c}; !- Layer 4

OS:StandardsInformation:Construction,
  {7f99771c-b137-4447-8c3b-c1a1624cfd65}, !- Handle
  {e2ba2b1f-5c1b-4fa3-bfc9-12ef3be51851}, !- Construction Name
  ExteriorWall,                           !- Intended Surface Type
  Mass;                                   !- Standards Construction Type

OS:Construction,
  {9aad8f85-7f2a-4228-bdc6-42139583c15a}, !- Handle
  ASHRAE 189.1-2009 ExtWall Mass ClimateZone alt-res 5, !- Name
  ,                                       !- Surface Rendering Name
  {33c3856f-f2e1-49f4-b9e8-6b896080656d}, !- Layer 1
  {ccb10d82-1ecd-4cc4-a889-f586362f20bc}, !- Layer 2
  {3afa40c9-1d52-45d5-9ae5-a2bfa540b44a}, !- Layer 3
  {bc56e074-2db1-427f-a892-0d471eac242c}; !- Layer 4

OS:StandardsInformation:Construction,
  {bc45e832-e946-4175-8d2b-884057d64e39}, !- Handle
  {9aad8f85-7f2a-4228-bdc6-42139583c15a}, !- Construction Name
  ExteriorWall,                           !- Intended Surface Type
  Mass;                                   !- Standards Construction Type

OS:Construction,
  {65107c40-fcae-4af1-8028-68e27bae8849}, !- Handle
  ASHRAE 189.1-2009 ExtWall Mass ClimateZone alt-res 6, !- Name
  ,                                       !- Surface Rendering Name
  {33c3856f-f2e1-49f4-b9e8-6b896080656d}, !- Layer 1
  {ccb10d82-1ecd-4cc4-a889-f586362f20bc}, !- Layer 2
  {341cdcb8-a5e4-45bd-a74d-c86005e50f5a}, !- Layer 3
  {bc56e074-2db1-427f-a892-0d471eac242c}; !- Layer 4

OS:StandardsInformation:Construction,
  {461183c2-f934-4496-bfc9-b32173df78ed}, !- Handle
  {65107c40-fcae-4af1-8028-68e27bae8849}, !- Construction Name
  ExteriorWall,                           !- Intended Surface Type
  Mass;                                   !- Standards Construction Type

OS:Construction,
  {60ff885b-097a-49c8-86ce-cabb8b1c3029}, !- Handle
  ASHRAE 189.1-2009 ExtWall Mass ClimateZone alt-res 7, !- Name
  ,                                       !- Surface Rendering Name
  {33c3856f-f2e1-49f4-b9e8-6b896080656d}, !- Layer 1
  {ccb10d82-1ecd-4cc4-a889-f586362f20bc}, !- Layer 2
  {341cdcb8-a5e4-45bd-a74d-c86005e50f5a}, !- Layer 3
  {bc56e074-2db1-427f-a892-0d471eac242c}; !- Layer 4

OS:StandardsInformation:Construction,
  {e3356e48-430c-4b2b-be17-06d3b0d7f5b8}, !- Handle
  {60ff885b-097a-49c8-86ce-cabb8b1c3029}, !- Construction Name
  ExteriorWall,                           !- Intended Surface Type
  Mass;                                   !- Standards Construction Type

OS:Construction,
  {c003a5cd-29ed-4191-a415-050afb1f9643}, !- Handle
  ASHRAE 189.1-2009 ExtWall Mass ClimateZone alt-res 8, !- Name