
OS:Version,
  {79020144-75c3-4af1-b8d9-0ab386c6d7b7}, !- Handle
  2.3.0;                                  !- Version Identifier

OS:Construction,
  {4d411e91-1d0f-4efe-9b8f-af4c1fbadf1b}, !- Handle
  ASHRAE 189.1-2009 AtticFloor ClimateZone 1-8, !- Name
  ,                                       !- Surface Rendering Name
  {7c04ba0e-29cf-4b4a-b699-cb982fbaa6a8}, !- Layer 1
  {8c52922f-20e1-4397-b6e0-6e64534789cf}, !- Layer 2
  {7c04ba0e-29cf-4b4a-b699-cb982fbaa6a8}; !- Layer 3

OS:StandardsInformation:Construction,
  {32f9f1a8-cb88-40cc-a4ab-608579c8e282}, !- Handle
  {4d411e91-1d0f-4efe-9b8f-af4c1fbadf1b}, !- Construction Name
  AtticFloor,                             !- Intended Surface Type
  WoodFramed,                             !- Standards Construction Type
  ,                                       !- Perturbable Layer
  ,                                       !- Perturbable Layer Type
  ,                                       !- Other Perturbable Layer Type
  ASHRAE 189.1-2009;                      !- Construction Standard

OS:Material,
  {7c04ba0e-29cf-4b4a-b699-cb982fbaa6a8}, !- Handle
  1/2IN Gypsum,                           !- Name
  Smooth,                                 !- Roughness
  0.0127,                                 !- Thickness {m}
  0.16,                                   !- Conductivity {W/m-K}
  784.9,                                  !- Density {kg/m3}
  830.000000000001,                       !- Specific Heat {J/kg-K}
  0.9,                                    !- Thermal Absorptance
  0.4,                                    !- Solar Absorptance
  0.4;                                    !- Visible Absorptance

OS:StandardsInformation:Material,
  {b7b6d4a0-5bb9-4786-a057-c4cdcccfad70}, !- Handle
  {7c04ba0e-29cf-4b4a-b699-cb982fbaa6a8}; !- Material Name

OS:Material,
  {8c52922f-20e1-4397-b6e0-6e64534789cf}, !- Handle
  AtticFloor Insulation,                  !- Name
  MediumRough,                            !- Roughness
  0.2379,                                 !- Thickness {m}
  0.049,                                  !- Conductivity {W/m-K}
  265,                                    !- Density {kg/m3}
  836.800000000001,                       !- Specific Heat {J/kg-K}
  0.9,                                    !- Thermal Absorptance
  0.7,                                    !- Solar Absorptance
  0.7;                                    !- Visible Absorptance

OS:StandardsInformation:Material,
  {2469fde9-8369-40a4-b655-6aabd64391a7}, !- Handle
  {8c52922f-20e1-4397-b6e0-6e64534789cf}; !- Material Name

OS:Construction,
  {8b947faa-db38-420c-8238-8d0495f199c9}, !- Handle
  ASHRAE 189.1-2009 ExtRoof IEAD ClimateZone 1, !- Name
  ,                                       !- Surface Rendering Name
  {7091047d-c99b-4af4-8b48-5ee42cee3f3f}, !- Layer 1
  {6e58ebf3-7ebc-42d3-aea4-95cc996b9e8e}, !- Layer 2
  {c0215166-9136-40b6-b79c-29d42ef47312}; !- Layer 3

OS:StandardsInformation:Construction,
  {03cf7bc4-3684-4235-a8b1-7b31fe47aa5e}, !- Handle
  {8b947faa-db38-420c-8238-8d0495f199c9}, !- Construction Name
  ExteriorRoof,                           !- Intended Surface Type
  IEAD,                                   !- Standards Construction Type
  ,                                       !- Perturbable Layer
  ,                                       !- Perturbable Layer Type
  ,                                       !- Other Perturbable Layer Type
  ASHRAE 189.1-2009;                      !- Construction Standard

OS:Material,
  {7091047d-c99b-4af4-8b48-5ee42cee3f3f}, !- Handle
  Roof Membrane,                          !- Name
  VeryRough,                              !- Roughness
  0.0095,                                 !- Thickness {m}
  0.16,                                   !- Conductivity {W/m-K}
  1121.29,                                !- Density {kg/m3}
  1460,                                   !- Specific Heat {J/kg-K}
  0.9,                                    !- Thermal Absorptance
  0.7,                                    !- Solar Absorptance
  0.7;                                    !- Visible Absorptance

OS:StandardsInformation:Material,
  {f808fa09-2f36-4709-bb0d-b13c8d09ab16}, !- Handle
  {7091047d-c99b-4af4-8b48-5ee42cee3f3f}; !- Material Name

OS:Material,
  {6e58ebf3-7ebc-42d3-aea4-95cc996b9e8e}, !- Handle
  Roof Insulation [18],                   !- Name
  MediumRough,                            !- Roughness
  0.1693,                                 !- Thickness {m}
  0.049,                                  !- Conductivity {W/m-K}
  265,                                    !- Density {kg/m3}
  836.800000000001,                       !- Specific Heat {J/kg-K}
  0.9,                                    !- Thermal Absorptance
  0.7,                                    !- Solar Absorptance
  0.7;                                    !- Visible Absorptance

OS:StandardsInformation:Material,
  {52f3a7a5-c320-4464-b530-2ee07e382270}, !- Handle
  {6e58ebf3-7ebc-42d3-aea4-95cc996b9e8e}; !- Material Name

OS:Material,
  {c0215166-9136-40b6-b79c-29d42ef47312}, !- Handle
  Metal Decking,                          !- Name
  MediumSmooth,                           !- Roughness
  0.0015,                                 !- Thickness {m}
  45.006,                                 !- Conductivity {W/m-K}
  7680,                                   !- Density {kg/m3}
  418.4,                                  !- Specific Heat {J/kg-K}
  0.9,                                    !- Thermal Absorptance
  0.6,                                    !- Solar Absorptance
  0.6;                                    !- Visible Absorptance

OS:StandardsInformation:Material,
  {1ebe9e7a-4461-4bb7-b275-99747112bf55}, !- Handle
  {c0215166-9136-40b6-b79c-29d42ef47312}; !- Material Name

OS:Construction,
  {d9a3ba88-b834-4d3e-a18c-47d9ce3ad8f9}, !- Handle
  ASHRAE 189.1-2009 ExtRoof IEAD ClimateZone 2-5, !- Name
  ,                                       !- Surface Rendering Name
  {7091047d-c99b-4af4-8b48-5ee42cee3f3f}, !- Layer 1
  {d85605fd-56d9-4a61-943b-36907908f758}, !- Layer 2
  {c0215166-9136-40b6-b79c-29d42ef47312}; !- Layer 3

OS:StandardsInformation:Construction,
  {641212b3-e81d-413a-a8ed-507cda349efd}, !- Handle
  {d9a3ba88-b834-4d3e-a18c-47d9ce3ad8f9}, !- Construction Name
  ExteriorRoof,                           !- Intended Surface Type
  IEAD,                                   !- Standards Construction Type
  ,                                       !- Perturbable Layer
  ,                                       !- Perturbable Layer Type
  ,                                       !- Other Perturbable Layer Type
  ASHRAE 189.1-2009;                      !- Construction Standard

OS:Material,
  {d85605fd-56d9-4a61-943b-36907908f758}, !- Handle
  Roof Insulation [21],                   !- Name
  MediumRough,                            !- Roughness
  0.2105,                                 !- Thickness {m}
  0.049,                                  !- Conductivity {W/m-K}
  265,                                    !- Density {kg/m3}
  836.800000000001,                       !- Specific Heat {J/kg-K}
  0.9,                                    !- Thermal Absorptance
  0.7,                                    !- Solar Absorptance
  0.7;                                    !- Visible Absorptance

OS:StandardsInformation:Material,
  {0d6332f5-ca0f-468a-b46e-c5d5df4fa635}, !- Handle
  {d85605fd-56d9-4a61-943b-36907908f758}; !- Material Name

OS:Construction,
  {ba4dd48c-11bb-4ba7-99d3-5bd2d0d2ba20}, !- Handle
  ASHRAE 189.1-2009 ExtRoof IEAD ClimateZone 6, !- Name
  ,                                       !- Surface Rendering Name
  {7091047d-c99b-4af4-8b48-5ee42cee3f3f}, !- Layer 1
  {c6799939-8647-48fd-b674-5477130f11ec}, !- Layer 2
  {c0215166-9136-40b6-b79c-29d42ef47312}; !- Layer 3

OS:StandardsInformation:Construction,
  {9f28bda1-c7b2-4da6-b70e-f89a58ff8e43}, !- Handle
  {ba4dd48c-11bb-4ba7-99d3-5bd2d0d2ba20}, !- Construction Name
  ExteriorRoof,                           !- Intended Surface Type
  IEAD,                                   !- Standards Construction Type
  ,                                       !- Perturbable Layer
  ,                                       !- Perturbable Layer Type
  ,                                       !- Other Perturbable Layer Type
  ASHRAE 189.1-2009;                      !- Construction Standard

OS:Material,
  {c6799939-8647-48fd-b674-5477130f11ec}, !- Handle
  Roof Insulation [24],                   !- Name
  MediumRough,                            !- Roughness
  0.260100000000001,                      !- Thickness {m}
  0.049,                                  !- Conductivity {W/m-K}
  265,                                    !- Density {kg/m3}
  836.800000000001,                       !- Specific Heat {J/kg-K}
  0.9,                                    !- Thermal Absorptance
  0.7,                                    !- Solar Absorptance
  0.7;                                    !- Visible Absorptance

OS:StandardsInformation:Material,
  {dcb6894a-edcc-4281-8392-869efd7e5bd1}, !- Handle
  {c6799939-8647-48fd-b674-5477130f11ec}; !- Material Name

OS:Construction,
  {c3e5c719-a321-48fc-aeed-c65388165f2d}, !- Handle
  ASHRAE 189.1-2009 ExtRoof IEAD ClimateZone 7-8, !- Name
  ,                                       !- Surface Rendering Name
  {7091047d-c99b-4af4-8b48-5ee42cee3f3f}, !- Layer 1
  {070f9950-a292-498e-9ca5-54f3ad20c7de}, !- Layer 2
  {c0215166-9136-40b6-b79c-29d42ef47312}; !- Layer 3

OS:StandardsInformation:Construction,
  {85682a3c-36a1-4609-b4d3-efff9540f35f}, !- Handle
  {c3e5c719-a321-48fc-aeed-c65388165f2d}, !- Construction Name
  ExteriorRoof,                           !- Intended Surface Type
  IEAD,                                   !- Standards Construction Type
  ,                                       !- Perturbable Layer
  ,                                       !- Perturbable Layer Type
  ,                                       !- Other Perturbable Layer Type
  ASHRAE 189.1-2009;                      !- Construction Standard

OS:Material,
  {070f9950-a292-498e-9ca5-54f3ad20c7de}, !- Handle
  Roof Insulation [26],                   !- Name
  MediumRough,                            !- Roughness
  0.2941,                                 !- Thickness {m}
  0.049,                                  !- Conductivity {W/m-K}
  265,                                    !- Density {kg/m3}
  836.800000000001,                       !- Specific Heat {J/kg-K}
  0.9,                                    !- Thermal Absorptance
  0.7,                                    !- Solar Absorptance
  0.7;                                    !- Visible Absorptance

OS:StandardsInformation:Material,
  {eb44cce3-0392-4d20-9b78-062ab27107d5}, !- Handle
  {070f9950-a292-498e-9ca5-54f3ad20c7de}; !- Material Name

OS:Construction,
  {4c886243-ce17-4fc1-8708-803e4fd2464d}, !- Handle
  ASHRAE 189.1-2009 ExtRoof Metal ClimateZone 1, !- Name
  ,                                       !- Surface Rendering Name
  {0859d64f-5764-4915-8d20-f41b78c82559}, !- Layer 1
  {27add762-a26d-481f-9ac3-a8c1805b42a2}, !- Layer 2
  {c0215166-9136-40b6-b79c-29d42ef47312}; !- Layer 3

OS:StandardsInformation:Construction,
  {ed4eb7d4-57da-4f8b-8512-8b6a10925edf}, !- Handle
  {4c886243-ce17-4fc1-8708-803e4fd2464d}, !- Construction Name
  ExteriorRoof,                           !- Intended Surface Type
  Metal,                                  !- Standards Construction Type
  ,                                       !- Perturbable Layer
  ,                                       !- Perturbable Layer Type
  ,                                       !- Other Perturbable Layer Type
  ASHRAE 189.1-2009;                      !- Construction Standard

OS:Material,
  {0859d64f-5764-4915-8d20-f41b78c82559}, !- Handle
  Metal Roofing,                          !- Name
  MediumSmooth,                           !- Roughness
  0.0015,                                 !- Thickness {m}
  45.006,                                 !- Conductivity {W/m-K}
  7680,                                   !- Density {kg/m3}
  418.4,                                  !- Specific Heat {J/kg-K}
  0.9,                                    !- Thermal Absorptance
  0.6,                                    !- Solar Absorptance
  0.6;                                    !- Visible Absorptance

OS:StandardsInformation:Material,
  {d6002ecf-7bac-4704-bfc4-8aed07ecc10b}, !- Handle
  {0859d64f-5764-4915-8d20-f41b78c82559}; !- Material Name

OS:Material,
  {27add762-a26d-481f-9ac3-a8c1805b42a2}, !- Handle
  Roof Insulation [19],                   !- Name
  MediumRough,                            !- Roughness
  0.1868,                                 !- Thickness {m}
  0.049,                                  !- Conductivity {W/m-K}
  265,                                    !- Density {kg/m3}
  836.800000000001,                       !- Specific Heat {J/kg-K}
  0.9,                                    !- Thermal Absorptance
  0.7,                                    !- Solar Absorptance
  0.7;                                    !- Visible Absorptance

OS:StandardsInformation:Material,
  {18ab1abb-c3e1-4356-b1cd-3d5382c19195}, !- Handle
  {27add762-a26d-481f-9ac3-a8c1805b42a2}; !- Material Name

OS:Construction,
  {ee57dd07-44de-4334-b194-481aaa32d0dc}, !- Handle
  ASHRAE 189.1-2009 ExtRoof Metal ClimateZone 2-5, !- Name
  ,                                       !- Surface Rendering Name
  {0859d64f-5764-4915-8d20-f41b78c82559}, !- Layer 1
  {e3d30c78-9a57-4517-9c1a-8f48bb3dde52}, !- Layer 2
  {c0215166-9136-40b6-b79c-29d42ef47312}; !- Layer 3

OS:StandardsInformation:Construction,
  {ade516e1-2670-4fbf-8879-735351f15f2d}, !- Handle
  {ee57dd07-44de-4334-b194-481aaa32d0dc}, !- Construction Name
  ExteriorRoof,                           !- Intended Surface Type
  Metal,                                  !- Standards Construction Type
  ,                                       !- Perturbable Layer
  ,                                       !- Perturbable Layer Type
  ,                                       !- Other Perturbable Layer Type
  ASHRAE 189.1-2009;                      !- Construction Standard

OS:Material,
  {e3d30c78-9a57-4517-9c1a-8f48bb3dde52}, !- Handle
  Roof Insulation [22],                   !- Name
  MediumRough,                            !- Roughness
  0.2358,                                 !- Thickness {m}
  0.049,                                  !- Conductivity {W/m-K}
  265,                                    !- Density {kg/m3}
  836.800000000001,                       !- Specific Heat {J/kg-K}
  0.9,                                    !- Thermal Absorptance
  0.7,                                    !- Solar Absorptance
  0.7;                                    !- Visible Absorptance

OS:StandardsInformation:Material,
  {4f760cf9-e71b-48c2-bf4e-81fbdf0ff746}, !- Handle
  {e3d30c78-9a57-4517-9c1a-8f48bb3dde52}; !- Material Name

OS:Construction,
  {3e7f31b2-2756-41cb-9bc3-ba35b4b81d85}, !- Handle
  ASHRAE 189.1-2009 ExtRoof Metal ClimateZone 6, !- Name
  ,                                       !- Surface Rendering Name
  {0859d64f-5764-4915-8d20-f41b78c82559}, !- Layer 1
  {f5fc9115-e7de-4161-a8fe-8e1faab713e4}, !- Layer 2
  {c0215166-9136-40b6-b79c-29d42ef47312}; !- Layer 3

OS:StandardsInformation:Construction,
  {e3c247f4-829b-4c46-add0-bbe211035e1d}, !- Handle
  {3e7f31b2-2756-41cb-9bc3-ba35b4b81d85}, !- Construction Name
  ExteriorRoof,                           !- Intended Surface Type
  Metal,                                  !- Standards Construction Type
  ,                                       !- Perturbable Layer
  ,                                       !- Perturbable Layer Type
  ,                                       !- Other Perturbable Layer Type
  ASHRAE 189.1-2009;                      !- Construction Standard

OS:Material,
  {f5fc9115-e7de-4161-a8fe-8e1faab713e4}, !- Handle
  Roof Insulation [25],                   !- Name
  MediumRough,                            !- Roughness
  0.263,                                  !- Thickness {m}
  0.049,                                  !- Conductivity {W/m-K}
  265,                                    !- Density {kg/m3}
  836.800000000001,                       !- Specific Heat {J/kg-K}
  0.9,                                    !- Thermal Absorptance
  0.7,                                    !- Solar Absorptance
  0.7;                                    !- Visible Absorptance

OS:StandardsInformation:Material,
  {c5d58130-9af4-431f-b87b-3163bdf1aa5c}, !- Handle
  {f5fc9115-e7de-4161-a8fe-8e1faab713e4}; !- Material Name

OS:Construction,
  {51e37e68-02ec-4bf4-9449-d1c79579501b}, !- Handle
  ASHRAE 189.1-2009 ExtRoof Metal ClimateZone 7-8, !- Name
  ,                                       !- Surface Rendering Name
  {0859d64f-5764-4915-8d20-f41b78c82559}, !- Layer 1
  {3857dcbf-58a1-4db5-95b2-7eed4ecf0f0b}, !- Layer 2
  {c0215166-9136-40b6-b79c-29d42ef47312}; !- Layer 3

OS:StandardsInformation:Construction,
  {e0c5e211-e4bf-404d-aba8-af10b0df09da}, !- Handle
  {51e37e68-02ec-4bf4-9449-d1c79579501b}, !- Construction Name
  ExteriorRoof,                           !- Intended Surface Type
  Metal,                                  !- Standards Construction Type
  ,                                       !- Perturbable Layer
  ,                                       !- Perturbable Layer Type
  ,                                       !- Other Perturbable Layer Type
  ASHRAE 189.1-2009;                      !- Construction Standard

OS:Material,
  {3857dcbf-58a1-4db5-95b2-7eed4ecf0f0b}, !- Handle
  Roof Insulation [27],                   !- Name
  MediumRough,                            !- Roughness
  0.297000000000001,                      !- Thickness {m}
  0.049,                                  !- Conductivity {W/m-K}
  265,                                    !- Density {kg/m3}
  836.800000000001,                       !- Specific Heat {J/kg-K}
  0.9,                                    !- Thermal Absorptance
  0.7,                                    !- Solar Absorptance
  0.7;                                    !- Visible Absorptance

OS:StandardsInformation:Material,
  {755ee9f9-4505-4e87-acdf-b25120ad4aaf}, !- Handle
  {3857dcbf-58a1-4db5-95b2-7eed4ecf0f0b}; !- Material Name

OS:Construction,
  {ce492ef9-6985-45cd-80d3-be5283e5fe29}, !- Handle
  ASHRAE 189.1-2009 ExtWall Mass ClimateZone 1, !- Name
  ,                                       !- Surface Rendering Name
  {4567b55e-057c-4093-a433-d80610882438}, !- Layer 1
  {002b4cd9-b473-4641-902c-c54122feb9d6}, !- Layer 2
  {be87ac08-7a1c-4a64-896f-054535dd546a}, !- Layer 3
  {7c04ba0e-29cf-4b4a-b699-cb982fbaa6a8}; !- Layer 4

OS:StandardsInformation:Construction,
  {30176acc-be72-4811-bc87-24a1d8dbe7f1}, !- Handle
  {ce492ef9-6985-45cd-80d3-be5283e5fe29}, !- Construction Name
  ExteriorWall,                           !- Intended Surface Type
  Mass,                                   !- Standards Construction Type
  ,                                       !- Perturbable Layer
  ,                                       !- Perturbable Layer Type
  ,                                       !- Other Perturbable Layer Type
  ASHRAE 189.1-2009;                      !- Construction Standard

OS:Material,
  {4567b55e-057c-4093-a433-d80610882438}, !- Handle
  1IN Stucco,                             !- Name
  Smooth,                                 !- Roughness
  0.0253,                                 !- Thickness {m}
  0.691799999999999,                      !- Conductivity {W/m-K}
  1858,                                   !- Density {kg/m3}
  836.999999999999,                       !- Specific Heat {J/kg-K}
  0.9,                                    !- Thermal Absorptance
  0.92,                                   !- Solar Absorptance
  0.92;                                   !- Visible Absorptance

OS:StandardsInformation:Material,
  {dd85690d-cb2b-4c26-b441-a5d4931a912c}, !- Handle
  {4567b55e-057c-4093-a433-d80610882438}; !- Material Name

OS:Material,
  {002b4cd9-b473-4641-902c-c54122feb9d6}, !- Handle
  8IN Concrete HW,                        !- Name
  MediumRough,                            !- Roughness
  0.2033,                                 !- Thickness {m}
  1.72959999999999,                       !- Conductivity {W/m-K}
  2242.99999999999,                       !- Density {kg/m3}
  836.999999999999,                       !- Specific Heat {J/kg-K}
  0.9,                                    !- Thermal Absorptance
  0.65,                                   !- Solar Absorptance
  0.65;                                   !- Visible Absorptance

OS:StandardsInformation:Material,
  {39ccbab8-0b1a-45c6-839a-56ad29316d73}, !- Handle
  {002b4cd9-b473-4641-902c-c54122feb9d6}; !- Material Name

OS:Material,
  {be87ac08-7a1c-4a64-896f-054535dd546a}, !- Handle
  Wall Insulation [31],                   !- Name
  MediumRough,                            !- Roughness
  0.0337000000000001,                     !- Thickness {m}
  0.0432,                                 !- Conductivity {W/m-K}
  91,                                     !- Density {kg/m3}
  836.999999999999,                       !- Specific Heat {J/kg-K}
  0.9,                                    !- Thermal Absorptance
  0.5,                                    !- Solar Absorptance
  0.5;                                    !- Visible Absorptance

OS:StandardsInformation:Material,
  {b316ef08-67ac-49fa-ace2-3322faa64c2c}, !- Handle
  {be87ac08-7a1c-4a64-896f-054535dd546a}; !- Material Name

OS:Construction,
  {551f374f-13e3-4850-8567-a9e36f4c0bb5}, !- Handle
  ASHRAE 189.1-2009 ExtWall Mass ClimateZone 2, !- Name
  ,                                       !- Surface Rendering Name
  {4567b55e-057c-4093-a433-d80610882438}, !- Layer 1
  {002b4cd9-b473-4641-902c-c54122feb9d6}, !- Layer 2
  {8cab570a-bb5c-43d8-8f21-f8da35a7aef5}, !- Layer 3
  {7c04ba0e-29cf-4b4a-b699-cb982fbaa6a8}; !- Layer 4

OS:StandardsInformation:Construction,
  {850066e4-3e05-44da-a6a1-7caa06358e1b}, !- Handle
  {551f374f-13e3-4850-8567-a9e36f4c0bb5}, !- Construction Name
  ExteriorWall,                           !- Intended Surface Type
  Mass,                                   !- Standards Construction Type
  ,                                       !- Perturbable Layer
  ,                                       !- Perturbable Layer Type
  ,                                       !- Other Perturbable Layer Type
  ASHRAE 189.1-2009;                      !- Construction Standard

OS:Material,
  {8cab570a-bb5c-43d8-8f21-f8da35a7aef5}, !- Handle
  Wall Insulation [35],                   !- Name
  MediumRough,                            !- Roughness
  0.0452,                                 !- Thickness {m}
  0.0432,                                 !- Conductivity {W/m-K}
  91,                                     !- Density {kg/m3}
  836.999999999999,                       !- Specific Heat {J/kg-K}
  0.9,                                    !- Thermal Absorptance
  0.5,                                    !- Solar Absorptance
  0.5;                                    !- Visible Absorptance

OS:StandardsInformation:Material,
  {4e8ad786-c7b5-40e3-8547-a31fe1334807}, !- Handle
  {8cab570a-bb5c-43d8-8f21-f8da35a7aef5}; !- Material Name

OS:Construction,
  {abe0b967-a1ae-4870-b4c6-c8f2d619ec4d}, !- Handle
  ASHRAE 189.1-2009 ExtWall Mass ClimateZone 3, !- Name
  ,                                       !- Surface Rendering Name
  {4567b55e-057c-4093-a433-d80610882438}, !- Layer 1
  {002b4cd9-b473-4641-902c-c54122feb9d6}, !- Layer 2
  {53fd7f07-65c6-4ef3-b1c9-aa1d04a7295b}, !- Layer 3
  {7c04ba0e-29cf-4b4a-b699-cb982fbaa6a8}; !- Layer 4

OS:StandardsInformation:Construction,
  {c29004e6-c0f6-4d27-9950-aab67adec014}, !- Handle
  {abe0b967-a1ae-4870-b4c6-c8f2d619ec4d}, !- Construction Name
  ExteriorWall,                           !- Intended Surface Type
  Mass,                                   !- Standards Construction Type
  ,                                       !- Perturbable Layer
  ,                                       !- Perturbable Layer Type
  ,                                       !- Other Perturbable Layer Type
  ASHRAE 189.1-2009;                      !- Construction Standard

OS:Material,
  {53fd7f07-65c6-4ef3-b1c9-aa1d04a7295b}, !- Handle
  Wall Insulation [36],                   !- Name
  MediumRough,                            !- Roughness
  0.0565999999999999,                     !- Thickness {m}
  0.0432,                                 !- Conductivity {W/m-K}
  91,                                     !- Density {kg/m3}
  836.999999999999,                       !- Specific Heat {J/kg-K}
  0.9,                                    !- Thermal Absorptance
  0.5,                                    !- Solar Absorptance
  0.5;                                    !- Visible Absorptance

OS:StandardsInformation:Material,
  {13b7fe27-47c8-4b08-b512-069455620f68}, !- Handle
  {53fd7f07-65c6-4ef3-b1c9-aa1d04a7295b}; !- Material Name

OS:Construction,
  {f36a1264-5d77-4331-86a8-6f60a8cfe3db}, !- Handle
  ASHRAE 189.1-2009 ExtWall Mass ClimateZone 4, !- Name
  ,                                       !- Surface Rendering Name
  {4567b55e-057c-4093-a433-d80610882438}, !- Layer 1
  {002b4cd9-b473-4641-902c-c54122feb9d6}, !- Layer 2
  {93105191-8c83-47eb-aab0-a0f83eb4ae4d}, !- Layer 3
  {7c04ba0e-29cf-4b4a-b699-cb982fbaa6a8}; !- Layer 4

OS:StandardsInformation:Construction,
  {63a430a3-c896-41fd-a155-8ffccc1f0417}, !- Handle
  {f36a1264-5d77-4331-86a8-6f60a8cfe3db}, !- Construction Name
  ExteriorWall,                           !- Intended Surface Type
  Mass,                                   !- Standards Construction Type
  ,                                       !- Perturbable Layer
  ,                                       !- Perturbable Layer Type
  ,                                       !- Other Perturbable Layer Type
  ASHRAE 189.1-2009;                      !- Construction Standard

OS:Material,
  {93105191-8c83-47eb-aab0-a0f83eb4ae4d}, !- Handle
  Wall Insulation [37],                   !- Name
  MediumRough,                            !- Roughness
  0.0680999999999999,                     !- Thickness {m}
  0.0432,                                 !- Conductivity {W/m-K}
  91,                                     !- Density {kg/m3}
  836.999999999999,                       !- Specific Heat {J/kg-K}
  0.9,                                    !- Thermal Absorptance
  0.5,                                    !- Solar Absorptance
  0.5;                                    !- Visible Absorptance

OS:StandardsInformation:Material,
  {7efb7943-724f-45ea-b8d2-ec50f2d358de}, !- Handle
  {93105191-8c83-47eb-aab0-a0f83eb4ae4d}; !- Material Name

OS:Construction,
  {c1cebda7-b965-424b-9615-ab2271c179f2}, !- Handle
  ASHRAE 189.1-2009 ExtWall Mass ClimateZone 5, !- Name
  ,                                       !- Surface Rendering Name
  {4567b55e-057c-4093-a433-d80610882438}, !- Layer 1
  {002b4cd9-b473-4641-902c-c54122feb9d6}, !- Layer 2
  {70d45067-bf84-4c0c-b9ea-62f225bc639e}, !- Layer 3
  {7c04ba0e-29cf-4b4a-b699-cb982fbaa6a8}; !- Layer 4

OS:StandardsInformation:Construction,
  {53c77289-a836-454b-a5f3-a2d0de2ef65c}, !- Handle
  {c1cebda7-b965-424b-9615-ab2271c179f2}, !- Construction Name
  ExteriorWall,                           !- Intended Surface Type
  Mass,                                   !- Standards Construction Type
  ,                                       !- Perturbable Layer
  ,                                       !- Perturbable Layer Type
  ,                                       !- Other Perturbable Layer Type
  ASHRAE 189.1-2009;                      !- Construction Standard

OS:Material,
  {70d45067-bf84-4c0c-b9ea-62f225bc639e}, !- Handle
  Wall Insulation [40],                   !- Name
  MediumRough,                            !- Roughness
  0.0793999999999999,                     !- Thickness {m}
  0.0432,                                 !- Conductivity {W/m-K}
  91,                                     !- Density {kg/m3}
  836.999999999999,                       !- Specific Heat {J/kg-K}
  0.9,                                    !- Thermal Absorptance
  0.5,                                    !- Solar Absorptance
  0.5;                                    !- Visible Absorptance

OS:StandardsInformation:Material,
  {01737af1-a3ca-40af-9a35-d83e0609a472}, !- Handle
  {70d45067-bf84-4c0c-b9ea-62f225bc639e}; !- Material Name

OS:Construction,
  {366edb18-c2a1-445f-b6c5-fc2902320f24}, !- Handle
  ASHRAE 189.1-2009 ExtWall Mass ClimateZone 6, !- Name
  ,                                       !- Surface Rendering Name
  {4567b55e-057c-4093-a433-d80610882438}, !- Layer 1
  {002b4cd9-b473-4641-902c-c54122feb9d6}, !- Layer 2
  {2daf53c3-ea57-4c73-855b-5744263a3825}, !- Layer 3
  {7c04ba0e-29cf-4b4a-b699-cb982fbaa6a8}; !- Layer 4

OS:StandardsInformation:Construction,
  {48842b17-15df-49a2-a594-fe2f33ca81c8}, !- Handle
  {366edb18-c2a1-445f-b6c5-fc2902320f24}, !- Construction Name
  ExteriorWall,                           !- Intended Surface Type
  Mass,                                   !- Standards Construction Type
  ,                                       !- Perturbable Layer
  ,                                       !- Perturbable Layer Type
  ,                                       !- Other Perturbable Layer Type
  ASHRAE 189.1-2009;                      !- Construction Standard

OS:Material,
  {2daf53c3-ea57-4c73-855b-5744263a3825}, !- Handle
  Wall Insulation [42],                   !- Name
  MediumRough,                            !- Roughness
  0.0913999999999999,                     !- Thickness {m}
  0.0432,                                 !- Conductivity {W/m-K}
  91,                                     !- Density {kg/m3}
  836.999999999999,                       !- Specific Heat {J/kg-K}