
OS:Version,
  {54861cb3-acad-43bd-8e46-b511033eaeb3}, !- Handle
  1.2.3;                                  !- Version Identifier

OS:Construction,
  {cb01c27c-3cfd-41e5-92a0-969b8e532d64}, !- Handle
  ASHRAE 189.1-2009 AtticFloor ClimateZone 1-8, !- Name
  ,                                       !- Surface Rendering Name
  {5ee0f719-59f7-44e4-be65-22c09d5c7880}, !- Layer 1
  {af00abd7-727b-4912-a45a-58f6cf8d4c68}, !- Layer 2
  {5ee0f719-59f7-44e4-be65-22c09d5c7880}; !- Layer 3

OS:StandardsInformation:Construction,
  {40737301-b6c5-46bf-80b0-146e5c3756b1}, !- Handle
  {cb01c27c-3cfd-41e5-92a0-969b8e532d64}, !- Construction Name
  AtticFloor,                             !- Intended Surface Type
  WoodFramed;                             !- Standards Construction Type

OS:Material,
  {5ee0f719-59f7-44e4-be65-22c09d5c7880}, !- Handle
  1/2IN Gypsum,                           !- Name
  Smooth,                                 !- Roughness
  0.0127,                                 !- Thickness {m}
  0.16,                                   !- Conductivity {W/m-K}
  784.9,                                  !- Density {kg/m3}
  830.000000000001,                       !- Specific Heat {J/kg-K}
  0.9,                                    !- Thermal Absorptance
  0.92,                                   !- Solar Absorptance
  0.92;                                   !- Visible Absorptance

OS:Material,
  {af00abd7-727b-4912-a45a-58f6cf8d4c68}, !- Handle
  AtticFloor Insulation,                  !- Name
  MediumRough,                            !- Roughness
  0.2379,                                 !- Thickness {m}
  0.049,                                  !- Conductivity {W/m-K}
  265,                                    !- Density {kg/m3}
  836.800000000001,                       !- Specific Heat {J/kg-K}
  0.9,                                    !- Thermal Absorptance
  0.7,                                    !- Solar Absorptance
  0.7;                                    !- Visible Absorptance

OS:Construction,
  {842a657b-339b-4c3b-b85a-e319dd06c85b}, !- Handle
  ASHRAE 189.1-2009 ExtRoof IEAD ClimateZone 1, !- Name
  ,                                       !- Surface Rendering Name
  {b02332ec-e0e2-49a3-a852-ad410be842e9}, !- Layer 1
  {7d329455-1632-495d-babd-bf85c6a69b08}, !- Layer 2
  {80f64709-1028-4cab-9f43-7756f482588f}; !- Layer 3

OS:StandardsInformation:Construction,
  {7b7f8f97-1991-47ea-a9b9-dc9e8755f513}, !- Handle
  {842a657b-339b-4c3b-b85a-e319dd06c85b}, !- Construction Name
  ExteriorRoof,                           !- Intended Surface Type
  IEAD;                                   !- Standards Construction Type

OS:Material,
  {b02332ec-e0e2-49a3-a852-ad410be842e9}, !- Handle
  Roof Membrane,                          !- Name
  VeryRough,                              !- Roughness
  0.0095,                                 !- Thickness {m}
  0.16,                                   !- Conductivity {W/m-K}
  1121.29,                                !- Density {kg/m3}
  1460,                                   !- Specific Heat {J/kg-K}
  0.9,                                    !- Thermal Absorptance
  0.7,                                    !- Solar Absorptance
  0.7;                                    !- Visible Absorptance

OS:Material,
  {7d329455-1632-495d-babd-bf85c6a69b08}, !- Handle
  Roof Insulation [18],                   !- Name
  MediumRough,                            !- Roughness
  0.1693,                                 !- Thickness {m}
  0.049,                                  !- Conductivity {W/m-K}
  265,                                    !- Density {kg/m3}
  836.800000000001,                       !- Specific Heat {J/kg-K}
  0.9,                                    !- Thermal Absorptance
  0.7,                                    !- Solar Absorptance
  0.7;                                    !- Visible Absorptance

OS:Material,
  {80f64709-1028-4cab-9f43-7756f482588f}, !- Handle
  Metal Decking,                          !- Name
  MediumSmooth,                           !- Roughness
  0.0015,                                 !- Thickness {m}
  45.006,                                 !- Conductivity {W/m-K}
  7680,                                   !- Density {kg/m3}
  418.4,                                  !- Specific Heat {J/kg-K}
  0.9,                                    !- Thermal Absorptance
  0.7,                                    !- Solar Absorptance
  0.3;                                    !- Visible Absorptance

OS:Construction,
  {2ce2a638-2515-46bf-97d9-dd9cc6cdcb8e}, !- Handle
  ASHRAE 189.1-2009 ExtRoof IEAD ClimateZone 2-5, !- Name
  ,                                       !- Surface Rendering Name
  {b02332ec-e0e2-49a3-a852-ad410be842e9}, !- Layer 1
  {069485df-95cf-427f-bb6a-39f6d542e870}, !- Layer 2
  {80f64709-1028-4cab-9f43-7756f482588f}; !- Layer 3

OS:StandardsInformation:Construction,
  {f3d40d80-083a-48eb-bdc5-5150604e000c}, !- Handle
  {2ce2a638-2515-46bf-97d9-dd9cc6cdcb8e}, !- Construction Name
  ExteriorRoof,                           !- Intended Surface Type
  IEAD;                                   !- Standards Construction Type

OS:Material,
  {069485df-95cf-427f-bb6a-39f6d542e870}, !- Handle
  Roof Insulation [21],                   !- Name
  MediumRough,                            !- Roughness
  0.2105,                                 !- Thickness {m}
  0.049,                                  !- Conductivity {W/m-K}
  265,                                    !- Density {kg/m3}
  836.800000000001,                       !- Specific Heat {J/kg-K}
  0.9,                                    !- Thermal Absorptance
  0.7,                                    !- Solar Absorptance
  0.7;                                    !- Visible Absorptance

OS:Construction,
  {391718bb-df90-4aaf-9d8b-b3a45d153529}, !- Handle
  ASHRAE 189.1-2009 ExtRoof IEAD ClimateZone 6, !- Name
  ,                                       !- Surface Rendering Name
  {b02332ec-e0e2-49a3-a852-ad410be842e9}, !- Layer 1
  {91851a13-1f17-4a9e-a436-4ea88b79b5ec}, !- Layer 2
  {80f64709-1028-4cab-9f43-7756f482588f}; !- Layer 3

OS:StandardsInformation:Construction,
  {7c30c1aa-052c-4a2d-83ef-02757ef9b4c6}, !- Handle
  {391718bb-df90-4aaf-9d8b-b3a45d153529}, !- Construction Name
  ExteriorRoof,                           !- Intended Surface Type
  IEAD;                                   !- Standards Construction Type

OS:Material,
  {91851a13-1f17-4a9e-a436-4ea88b79b5ec}, !- Handle
  Roof Insulation [24],                   !- Name
  MediumRough,                            !- Roughness
  0.260100000000001,                      !- Thickness {m}
  0.049,                                  !- Conductivity {W/m-K}
  265,                                    !- Density {kg/m3}
  836.800000000001,                       !- Specific Heat {J/kg-K}
  0.9,                                    !- Thermal Absorptance
  0.7,                                    !- Solar Absorptance
  0.7;                                    !- Visible Absorptance

OS:Construction,
  {0db99765-29cb-457e-a924-5a25e9162121}, !- Handle
  ASHRAE 189.1-2009 ExtRoof IEAD ClimateZone 7-8, !- Name
  ,                                       !- Surface Rendering Name
  {b02332ec-e0e2-49a3-a852-ad410be842e9}, !- Layer 1
  {c25d1aab-9180-4e95-a715-f38bf1c93726}, !- Layer 2
  {80f64709-1028-4cab-9f43-7756f482588f}; !- Layer 3

OS:StandardsInformation:Construction,
  {4ccd4dd5-52ca-4a71-b9bf-d9e7124e2d44}, !- Handle
  {0db99765-29cb-457e-a924-5a25e9162121}, !- Construction Name
  ExteriorRoof,                           !- Intended Surface Type
  IEAD;                                   !- Standards Construction Type

OS:Material,
  {c25d1aab-9180-4e95-a715-f38bf1c93726}, !- Handle
  Roof Insulation [26],                   !- Name
  MediumRough,                            !- Roughness
  0.2941,                                 !- Thickness {m}
  0.049,                                  !- Conductivity {W/m-K}
  265,                                    !- Density {kg/m3}
  836.800000000001,                       !- Specific Heat {J/kg-K}
  0.9,                                    !- Thermal Absorptance
  0.7,                                    !- Solar Absorptance
  0.7;                                    !- Visible Absorptance

OS:Construction,
  {33b2c5cd-3622-4b5a-b460-dbbaf174a10f}, !- Handle
  ASHRAE 189.1-2009 ExtRoof Metal ClimateZone 1, !- Name
  ,                                       !- Surface Rendering Name
  {05d14cbf-73cd-4f18-8cb5-749d60c881f1}, !- Layer 1
  {cb546a0a-6e58-43ea-ada0-f9f4279da1be}; !- Layer 2

OS:StandardsInformation:Construction,
  {7205f93c-fe2c-4a34-bccd-936bc2d75e60}, !- Handle
  {33b2c5cd-3622-4b5a-b460-dbbaf174a10f}, !- Construction Name
  ExteriorRoof,                           !- Intended Surface Type
  Metal;                                  !- Standards Construction Type

OS:Material,
  {05d14cbf-73cd-4f18-8cb5-749d60c881f1}, !- Handle
  Metal Roofing,                          !- Name
  MediumSmooth,                           !- Roughness
  0.0015,                                 !- Thickness {m}
  45.006,                                 !- Conductivity {W/m-K}
  7680,                                   !- Density {kg/m3}
  418.4,                                  !- Specific Heat {J/kg-K}
  0.9,                                    !- Thermal Absorptance
  0.3,                                    !- Solar Absorptance
  0.3;                                    !- Visible Absorptance

OS:Material,
  {cb546a0a-6e58-43ea-ada0-f9f4279da1be}, !- Handle
  Roof Insulation [19],                   !- Name
  MediumRough,                            !- Roughness
  0.1868,                                 !- Thickness {m}
  0.049,                                  !- Conductivity {W/m-K}
  265,                                    !- Density {kg/m3}
  836.800000000001,                       !- Specific Heat {J/kg-K}
  0.9,                                    !- Thermal Absorptance
  0.7,                                    !- Solar Absorptance
  0.7;                                    !- Visible Absorptance

OS:Construction,
  {ff882aab-75bf-4d66-bc52-45628aa09cdd}, !- Handle
  ASHRAE 189.1-2009 ExtRoof Metal ClimateZone 2-5, !- Name
  ,                                       !- Surface Rendering Name
  {05d14cbf-73cd-4f18-8cb5-749d60c881f1}, !- Layer 1
  {96c7ce59-3373-40b2-9e0d-b33f402fd21d}; !- Layer 2

OS:StandardsInformation:Construction,
  {cce45252-e779-489e-badf-4a046a8f0d7a}, !- Handle
  {ff882aab-75bf-4d66-bc52-45628aa09cdd}, !- Construction Name
  ExteriorRoof,                           !- Intended Surface Type
  Metal;                                  !- Standards Construction Type

OS:Material,
  {96c7ce59-3373-40b2-9e0d-b33f402fd21d}, !- Handle
  Roof Insulation [22],                   !- Name
  MediumRough,                            !- Roughness
  0.2358,                                 !- Thickness {m}
  0.049,                                  !- Conductivity {W/m-K}
  265,                                    !- Density {kg/m3}
  836.800000000001,                       !- Specific Heat {J/kg-K}
  0.9,                                    !- Thermal Absorptance
  0.7,                                    !- Solar Absorptance
  0.7;                                    !- Visible Absorptance

OS:Construction,
  {23d2c527-186d-42bf-b2ca-ed9a9695a927}, !- Handle
  ASHRAE 189.1-2009 ExtRoof Metal ClimateZone 6, !- Name
  ,                                       !- Surface Rendering Name
  {05d14cbf-73cd-4f18-8cb5-749d60c881f1}, !- Layer 1
  {04818ec1-a439-4e21-90d2-0a2ed39b3328}; !- Layer 2

OS:StandardsInformation:Construction,
  {d3d0d60d-5839-43cc-b473-ea64b18bb01e}, !- Handle
  {23d2c527-186d-42bf-b2ca-ed9a9695a927}, !- Construction Name
  ExteriorRoof,                           !- Intended Surface Type
  Metal;                                  !- Standards Construction Type

OS:Material,
  {04818ec1-a439-4e21-90d2-0a2ed39b3328}, !- Handle
  Roof Insulation [25],                   !- Name
  MediumRough,                            !- Roughness
  0.263,                                  !- Thickness {m}
  0.049,                                  !- Conductivity {W/m-K}
  265,                                    !- Density {kg/m3}
  836.800000000001,                       !- Specific Heat {J/kg-K}
  0.9,                                    !- Thermal Absorptance
  0.7,                                    !- Solar Absorptance
  0.7;                                    !- Visible Absorptance

OS:Construction,
  {1e046118-755e-41c5-ba4f-a35c34bd5c55}, !- Handle
  ASHRAE 189.1-2009 ExtRoof Metal ClimateZone 7-8, !- Name
  ,                                       !- Surface Rendering Name
  {05d14cbf-73cd-4f18-8cb5-749d60c881f1}, !- Layer 1
  {f8837440-c48d-491e-be2e-48aa5c52cfe9}; !- Layer 2

OS:StandardsInformation:Construction,
  {01e2cb3e-5a6b-4f88-80e6-567cbfdfe351}, !- Handle
  {1e046118-755e-41c5-ba4f-a35c34bd5c55}, !- Construction Name
  ExteriorRoof,                           !- Intended Surface Type
  Metal;                                  !- Standards Construction Type

OS:Material,
  {f8837440-c48d-491e-be2e-48aa5c52cfe9}, !- Handle
  Roof Insulation [27],                   !- Name
  MediumRough,                            !- Roughness
  0.297000000000001,                      !- Thickness {m}
  0.049,                                  !- Conductivity {W/m-K}
  265,                                    !- Density {kg/m3}
  836.800000000001,                       !- Specific Heat {J/kg-K}
  0.9,                                    !- Thermal Absorptance
  0.7,                                    !- Solar Absorptance
  0.7;                                    !- Visible Absorptance

OS:Construction,
  {4a865ac9-9893-4486-ad0a-26250b8c950a}, !- Handle
  ASHRAE 189.1-2009 ExtWall Mass ClimateZone 1, !- Name
  ,                                       !- Surface Rendering Name
  {04dafd5f-350d-4a55-9b51-49237706f5f0}, !- Layer 1
  {46a634d0-8696-4325-b4cd-e1e61aa20f49}, !- Layer 2
  {821cbbff-d9eb-4970-b260-125146ff9f5f}, !- Layer 3
  {5ee0f719-59f7-44e4-be65-22c09d5c7880}; !- Layer 4

OS:StandardsInformation:Construction,
  {669042dd-2bc5-4419-8da0-a6900a81b67b}, !- Handle
  {4a865ac9-9893-4486-ad0a-26250b8c950a}, !- Construction Name
  ExteriorWall,                           !- Intended Surface Type
  Mass;                                   !- Standards Construction Type

OS:Material,
  {04dafd5f-350d-4a55-9b51-49237706f5f0}, !- Handle
  1IN Stucco,                             !- Name
  Smooth,                                 !- Roughness
  0.0253,                                 !- Thickness {m}
  0.691799999999999,                      !- Conductivity {W/m-K}
  1858,                                   !- Density {kg/m3}
  836.999999999999,                       !- Specific Heat {J/kg-K}
  0.9,                                    !- Thermal Absorptance
  0.92,                                   !- Solar Absorptance
  0.92;                                   !- Visible Absorptance

OS:Material,
  {46a634d0-8696-4325-b4cd-e1e61aa20f49}, !- Handle
  8IN Concrete HW,                        !- Name
  MediumRough,                            !- Roughness
  0.2033,                                 !- Thickness {m}
  1.72959999999999,                       !- Conductivity {W/m-K}
  2242.99999999999,                       !- Density {kg/m3}
  836.999999999999,                       !- Specific Heat {J/kg-K}
  0.9,                                    !- Thermal Absorptance
  0.65,                                   !- Solar Absorptance
  0.65;                                   !- Visible Absorptance

OS:Material,
  {821cbbff-d9eb-4970-b260-125146ff9f5f}, !- Handle
  Wall Insulation [31],                   !- Name
  MediumRough,                            !- Roughness
  0.0337000000000001,                     !- Thickness {m}
  0.0432,                                 !- Conductivity {W/m-K}
  91,                                     !- Density {kg/m3}
  836.999999999999,                       !- Specific Heat {J/kg-K}
  0.9,                                    !- Thermal Absorptance
  0.5,                                    !- Solar Absorptance
  0.5;                                    !- Visible Absorptance

OS:Construction,
  {f88d9322-0483-434e-b7d3-20707366ad15}, !- Handle
  ASHRAE 189.1-2009 ExtWall Mass ClimateZone 2, !- Name
  ,                                       !- Surface Rendering Name
  {04dafd5f-350d-4a55-9b51-49237706f5f0}, !- Layer 1
  {46a634d0-8696-4325-b4cd-e1e61aa20f49}, !- Layer 2
  {4e408cec-46e6-4c11-8776-d168500aea15}, !- Layer 3
  {5ee0f719-59f7-44e4-be65-22c09d5c7880}; !- Layer 4

OS:StandardsInformation:Construction,
  {94c96946-ac1d-46ac-b95c-dadb5cd830e7}, !- Handle
  {f88d9322-0483-434e-b7d3-20707366ad15}, !- Construction Name
  ExteriorWall,                           !- Intended Surface Type
  Mass;                                   !- Standards Construction Type

OS:Material,
  {4e408cec-46e6-4c11-8776-d168500aea15}, !- Handle
  Wall Insulation [35],                   !- Name
  MediumRough,                            !- Roughness
  0.0452,                                 !- Thickness {m}
  0.0432,                                 !- Conductivity {W/m-K}
  91,                                     !- Density {kg/m3}
  836.999999999999,                       !- Specific Heat {J/kg-K}
  0.9,                                    !- Thermal Absorptance
  0.5,                                    !- Solar Absorptance
  0.5;                                    !- Visible Absorptance

OS:Construction,
  {5fd5c400-c971-4a95-8018-37f584207f43}, !- Handle
  ASHRAE 189.1-2009 ExtWall Mass ClimateZone 3, !- Name
  ,                                       !- Surface Rendering Name
  {04dafd5f-350d-4a55-9b51-49237706f5f0}, !- Layer 1
  {46a634d0-8696-4325-b4cd-e1e61aa20f49}, !- Layer 2
  {c763cf86-f828-4b88-88f8-00d7e042fd2e}, !- Layer 3
  {5ee0f719-59f7-44e4-be65-22c09d5c7880}; !- Layer 4

OS:StandardsInformation:Construction,
  {c423ac68-e1c1-4be9-9dc1-af951ed66a31}, !- Handle
  {5fd5c400-c971-4a95-8018-37f584207f43}, !- Construction Name
  ExteriorWall,                           !- Intended Surface Type
  Mass;                                   !- Standards Construction Type

OS:Material,
  {c763cf86-f828-4b88-88f8-00d7e042fd2e}, !- Handle
  Wall Insulation [36],                   !- Name
  MediumRough,                            !- Roughness
  0.0565999999999999,                     !- Thickness {m}
  0.0432,                                 !- Conductivity {W/m-K}
  91,                                     !- Density {kg/m3}
  836.999999999999,                       !- Specific Heat {J/kg-K}
  0.9,                                    !- Thermal Absorptance
  0.5,                                    !- Solar Absorptance
  0.5;                                    !- Visible Absorptance

OS:Construction,
  {c111d98e-f02a-4eb9-be5f-d2349b473e8c}, !- Handle
  ASHRAE 189.1-2009 ExtWall Mass ClimateZone 4, !- Name
  ,                                       !- Surface Rendering Name
  {04dafd5f-350d-4a55-9b51-49237706f5f0}, !- Layer 1
  {46a634d0-8696-4325-b4cd-e1e61aa20f49}, !- Layer 2
  {f1fd209c-3b00-4430-9f85-cf20943ae7d9}, !- Layer 3
  {5ee0f719-59f7-44e4-be65-22c09d5c7880}; !- Layer 4

OS:StandardsInformation:Construction,
  {bfb10631-15bb-4c7b-9b84-8e01a62bf9c4}, !- Handle
  {c111d98e-f02a-4eb9-be5f-d2349b473e8c}, !- Construction Name
  ExteriorWall,                           !- Intended Surface Type
  Mass;                                   !- Standards Construction Type

OS:Material,
  {f1fd209c-3b00-4430-9f85-cf20943ae7d9}, !- Handle
  Wall Insulation [37],                   !- Name
  MediumRough,                            !- Roughness
  0.0680999999999999,                     !- Thickness {m}
  0.0432,                                 !- Conductivity {W/m-K}
  91,                                     !- Density {kg/m3}
  836.999999999999,                       !- Specific Heat {J/kg-K}
  0.9,                                    !- Thermal Absorptance
  0.5,                                    !- Solar Absorptance
  0.5;                                    !- Visible Absorptance

OS:Construction,
  {dde32f75-4439-4c9c-9206-54dbd1791f73}, !- Handle
  ASHRAE 189.1-2009 ExtWall Mass ClimateZone 5, !- Name
  ,                                       !- Surface Rendering Name
  {04dafd5f-350d-4a55-9b51-49237706f5f0}, !- Layer 1
  {46a634d0-8696-4325-b4cd-e1e61aa20f49}, !- Layer 2
  {cadda623-3477-4c07-bb85-1a22b0a74872}, !- Layer 3
  {5ee0f719-59f7-44e4-be65-22c09d5c7880}; !- Layer 4

OS:StandardsInformation:Construction,
  {3041e5f5-ed4c-4c52-ad8a-542107836937}, !- Handle
  {dde32f75-4439-4c9c-9206-54dbd1791f73}, !- Construction Name
  ExteriorWall,                           !- Intended Surface Type
  Mass;                                   !- Standards Construction Type

OS:Material,
  {cadda623-3477-4c07-bb85-1a22b0a74872}, !- Handle
  Wall Insulation [40],                   !- Name
  MediumRough,                            !- Roughness
  0.0793999999999999,                     !- Thickness {m}
  0.0432,                                 !- Conductivity {W/m-K}
  91,                                     !- Density {kg/m3}
  836.999999999999,                       !- Specific Heat {J/kg-K}
  0.9,                                    !- Thermal Absorptance
  0.5,                                    !- Solar Absorptance
  0.5;                                    !- Visible Absorptance

OS:Construction,
  {bfd9945c-b5d8-4848-8bda-c6c4818cd396}, !- Handle
  ASHRAE 189.1-2009 ExtWall Mass ClimateZone 6, !- Name
  ,                                       !- Surface Rendering Name
  {04dafd5f-350d-4a55-9b51-49237706f5f0}, !- Layer 1
  {46a634d0-8696-4325-b4cd-e1e61aa20f49}, !- Layer 2
  {b279b61c-e6bc-4551-b483-4735bee0a6f3}, !- Layer 3
  {5ee0f719-59f7-44e4-be65-22c09d5c7880}; !- Layer 4

OS:StandardsInformation:Construction,
  {3ce60bc8-ef81-4a79-b034-ae55227d03ec}, !- Handle
  {bfd9945c-b5d8-4848-8bda-c6c4818cd396}, !- Construction Name
  ExteriorWall,                           !- Intended Surface Type
  Mass;                                   !- Standards Construction Type

OS:Material,
  {b279b61c-e6bc-4551-b483-4735bee0a6f3}, !- Handle
  Wall Insulation [42],                   !- Name
  MediumRough,                            !- Roughness
  0.0913999999999999,                     !- Thickness {m}
  0.0432,                                 !- Conductivity {W/m-K}
  91,                                     !- Density {kg/m3}
  836.999999999999,                       !- Specific Heat {J/kg-K}
  0.9,                                    !- Thermal Absorptance
  0.5,                                    !- Solar Absorptance
  0.5;                                    !- Visible Absorptance

OS:Construction,
  {2d1db680-4a15-491e-a1c6-e536133f3f06}, !- Handle
  ASHRAE 189.1-2009 ExtWall Mass ClimateZone 7-8, !- Name
  ,                                       !- Surface Rendering Name
  {04dafd5f-350d-4a55-9b51-49237706f5f0}, !- Layer 1
  {46a634d0-8696-4325-b4cd-e1e61aa20f49}, !- Layer 2
  {2f32b03e-2bc9-4e39-b7cc-5625294cf0f7}, !- Layer 3
  {5ee0f719-59f7-44e4-be65-22c09d5c7880}; !- Layer 4

OS:StandardsInformation:Construction,
  {43ccf279-df36-4719-9a44-cb14cd7179ab}, !- Handle
  {2d1db680-4a15-491e-a1c6-e536133f3f06}, !- Construction Name
  ExteriorWall,                           !- Intended Surface Type
  Mass;                                   !- Standards Construction Type

OS:Material,
  {2f32b03e-2bc9-4e39-b7cc-5625294cf0f7}, !- Handle
  Wall Insulation [44],                   !- Name
  MediumRough,                            !- Roughness
  0.1104,                                 !- Thickness {m}
  0.0432,                                 !- Conductivity {W/m-K}
  91,                                     !- Density {kg/m3}
  836.999999999999,                       !- Specific Heat {J/kg-K}
  0.9,                                    !- Thermal Absorptance
  0.5,                                    !- Solar Absorptance
  0.5;                                    !- Visible Absorptance

OS:Construction,
  {c3c734ff-58f5-4fda-a0db-5b447b321481}, !- Handle
  ASHRAE 189.1-2009 ExtWall Mass ClimateZone alt-res 1, !- Name
  ,                                       !- Surface Rendering Name
  {04dafd5f-350d-4a55-9b51-49237706f5f0}, !- Layer 1
  {46a634d0-8696-4325-b4cd-e1e61aa20f49}, !- Layer 2
  {4e408cec-46e6-4c11-8776-d168500aea15}, !- Layer 3
  {5ee0f719-59f7-44e4-be65-22c09d5c7880}; !- Layer 4

OS:StandardsInformation:Construction,
  {59458842-a640-45d9-a982-77379be2fec0}, !- Handle
  {c3c734ff-58f5-4fda-a0db-5b447b321481}, !- Construction Name
  ExteriorWall,                           !- Intended Surface Type
  Mass;                                   !- Standards Construction Type

OS:Construction,
  {791af320-ed83-4f84-96b9-f90eb9ed53f8}, !- Handle
  ASHRAE 189.1-2009 ExtWall Mass ClimateZone alt-res 2, !- Name
  ,                                       !- Surface Rendering Name
  {04dafd5f-350d-4a55-9b51-49237706f5f0}, !- Layer 1
  {46a634d0-8696-4325-b4cd-e1e61aa20f49}, !- Layer 2
  {c763cf86-f828-4b88-88f8-00d7e042fd2e}, !- Layer 3
  {5ee0f719-59f7-44e4-be65-22c09d5c7880}; !- Layer 4

OS:StandardsInformation:Construction,
  {b585bed8-3433-4c31-8f0f-9de0192ba374}, !- Handle
  {791af320-ed83-4f84-96b9-f90eb9ed53f8}, !- Construction Name
  ExteriorWall,                           !- Intended Surface Type
  Mass;                                   !- Standards Construction Type

OS:Construction,
  {f86e9a75-e286-4bf4-9596-1dd2fdf6a7a3}, !- Handle
  ASHRAE 189.1-2009 ExtWall Mass ClimateZone alt-res 3, !- Name
  ,                                       !- Surface Rendering Name
  {04dafd5f-350d-4a55-9b51-49237706f5f0}, !- Layer 1
  {46a634d0-8696-4325-b4cd-e1e61aa20f49}, !- Layer 2
  {f1fd209c-3b00-4430-9f85-cf20943ae7d9}, !- Layer 3
  {5ee0f719-59f7-44e4-be65-22c09d5c7880}; !- Layer 4

OS:StandardsInformation:Construction,
  {4533bde2-b36b-4326-8a0b-669f29e4de27}, !- Handle
  {f86e9a75-e286-4bf4-9596-1dd2fdf6a7a3}, !- Construction Name
  ExteriorWall,                           !- Intended Surface Type
  Mass;                                   !- Standards Construction Type

OS:Construction,
  {ac82b311-e477-4733-9805-33ddfe96f1cc}, !- Handle
  ASHRAE 189.1-2009 ExtWall Mass ClimateZone alt-res 4, !- Name
  ,                                       !- Surface Rendering Name
  {04dafd5f-350d-4a55-9b51-49237706f5f0}, !- Layer 1
  {46a634d0-8696-4325-b4cd-e1e61aa20f49}, !- Layer 2
  {cadda623-3477-4c07-bb85-1a22b0a74872}, !- Layer 3
  {5ee0f719-59f7-44e4-be65-22c09d5c7880}; !- Layer 4

OS:StandardsInformation:Construction,
  {a12d98cf-e338-4b7d-aa4e-c8e8b32c5fce}, !- Handle
  {ac82b311-e477-4733-9805-33ddfe96f1cc}, !- Construction Name
  ExteriorWall,                           !- Intended Surface Type
  Mass;                                   !- Standards Construction Type

OS:Construction,
  {f180407f-5e7b-449c-8e17-53efb7c2df11}, !- Handle
  ASHRAE 189.1-2009 ExtWall Mass ClimateZone alt-res 5, !- Name
  ,                                       !- Surface Rendering Name
  {04dafd5f-350d-4a55-9b51-49237706f5f0}, !- Layer 1
  {46a634d0-8696-4325-b4cd-e1e61aa20f49}, !- Layer 2
  {b279b61c-e6bc-4551-b483-4735bee0a6f3}, !- Layer 3
  {5ee0f719-59f7-44e4-be65-22c09d5c7880}; !- Layer 4

OS:StandardsInformation:Construction,
  {20978d0b-178e-484a-97ea-70cb6788482e}, !- Handle
  {f180407f-5e7b-449c-8e17-53efb7c2df11}, !- Construction Name
  ExteriorWall,                           !- Intended Surface Type
  Mass;                                   !- Standards Construction Type

OS:Construction,
  {757249ed-6440-45b8-ad7b-860b5a080a41}, !- Handle
  ASHRAE 189.1-2009 ExtWall Mass ClimateZone alt-res 6, !- Name
  ,                                       !- Surface Rendering Name
  {04dafd5f-350d-4a55-9b51-49237706f5f0}, !- Layer 1
  {46a634d0-8696-4325-b4cd-e1e61aa20f49}, !- Layer 2
  {2f32b03e-2bc9-4e39-b7cc-5625294cf0f7}, !- Layer 3
  {5ee0f719-59f7-44e4-be65-22c09d5c7880}; !- Layer 4

OS:StandardsInformation:Construction,
  {8e1df867-3414-41d8-b6a5-4987b70bcfdc}, !- Handle
  {757249ed-6440-45b8-ad7b-860b5a080a41}, !- Construction Name
  ExteriorWall,                           !- Intended Surface Type
  Mass;                                   !- Standards Construction Type

OS:Construction,
  {c377c52e-b7a7-41a6-841a-840c85168ef0}, !- Handle
  ASHRAE 189.1-2009 ExtWall Mass ClimateZone alt-res 7, !- Name
  ,                                       !- Surface Rendering Name
  {04dafd5f-350d-4a55-9b51-49237706f5f0}, !- Layer 1
  {46a634d0-8696-4325-b4cd-e1e61aa20f49}, !- Layer 2
  {2f32b03e-2bc9-4e39-b7cc-5625294cf0f7}, !- Layer 3
  {5ee0f719-59f7-44e4-be65-22c09d5c7880}; !- Layer 4

OS:StandardsInformation:Construction,
  {8964f407-bad6-422c-bc37-75f711f99286}, !- Handle
  {c377c52e-b7a7-41a6-841a-840c85168ef0}, !- Construction Name
  ExteriorWall,                           !- Intended Surface Type
  Mass;                                   !- Standards Construction Type

OS:Construction,
  {02b9b2c8-1d15-4a67-af79-6bef87b41ce8}, !- Handle
  ASHRAE 189.1-2009 ExtWall Mass ClimateZone alt-res 8, !- Name