
OS:Version,
  {ba26654f-a36c-4b72-8a12-622388dfdad4}, !- Handle
  1.3.3;                                  !- Version Identifier

OS:Construction,
  {a6e67bd6-abab-4f74-879c-6a3292259d80}, !- Handle
  ASHRAE 189.1-2009 AtticFloor ClimateZone 1-8, !- Name
  ,                                       !- Surface Rendering Name
  {b886417d-4dc5-43be-971f-62d0743b2710}, !- Layer 1
  {1c304617-95f5-47e2-9003-5fecaff970c8}, !- Layer 2
  {b886417d-4dc5-43be-971f-62d0743b2710}; !- Layer 3

OS:StandardsInformation:Construction,
  {5e9365bc-9c76-458c-98e2-a462a572de07}, !- Handle
  {a6e67bd6-abab-4f74-879c-6a3292259d80}, !- Construction Name
  AtticFloor,                             !- Intended Surface Type
  WoodFramed;                             !- Standards Construction Type

OS:Material,
  {b886417d-4dc5-43be-971f-62d0743b2710}, !- Handle
  1/2IN Gypsum,                           !- Name
  Smooth,                                 !- Roughness
  0.0127,                                 !- Thickness {m}
  0.16,                                   !- Conductivity {W/m-K}
  784.9,                                  !- Density {kg/m3}
  830.000000000001,                       !- Specific Heat {J/kg-K}
  0.9,                                    !- Thermal Absorptance
  0.4,                                    !- Solar Absorptance
  0.4;                                    !- Visible Absorptance

OS:Material,
  {1c304617-95f5-47e2-9003-5fecaff970c8}, !- Handle
  AtticFloor Insulation,                  !- Name
  MediumRough,                            !- Roughness
  0.2379,                                 !- Thickness {m}
  0.049,                                  !- Conductivity {W/m-K}
  265,                                    !- Density {kg/m3}
  836.800000000001,                       !- Specific Heat {J/kg-K}
  0.9,                                    !- Thermal Absorptance
  0.7,                                    !- Solar Absorptance
  0.7;                                    !- Visible Absorptance

OS:Construction,
  {9517053d-31ec-4bda-89f6-207f24c46ef8}, !- Handle
  ASHRAE 189.1-2009 ExtRoof IEAD ClimateZone 1, !- Name
  ,                                       !- Surface Rendering Name
  {fd9862d2-0b30-4927-a61d-b50e0548532d}, !- Layer 1
  {6c1e3e88-045f-4b2e-9611-198d71ad68e1}, !- Layer 2
  {a8dcad50-0b22-46ac-9fff-9f4a79fcf2b2}; !- Layer 3

OS:StandardsInformation:Construction,
  {c88f813e-d272-4fbb-bdf4-48b339a34f97}, !- Handle
  {9517053d-31ec-4bda-89f6-207f24c46ef8}, !- Construction Name
  ExteriorRoof,                           !- Intended Surface Type
  IEAD;                                   !- Standards Construction Type

OS:Material,
  {fd9862d2-0b30-4927-a61d-b50e0548532d}, !- Handle
  Roof Membrane,                          !- Name
  VeryRough,                              !- Roughness
  0.0095,                                 !- Thickness {m}
  0.16,                                   !- Conductivity {W/m-K}
  1121.29,                                !- Density {kg/m3}
  1460,                                   !- Specific Heat {J/kg-K}
  0.9,                                    !- Thermal Absorptance
  0.7,                                    !- Solar Absorptance
  0.7;                                    !- Visible Absorptance

OS:Material,
  {6c1e3e88-045f-4b2e-9611-198d71ad68e1}, !- Handle
  Roof Insulation [18],                   !- Name
  MediumRough,                            !- Roughness
  0.1693,                                 !- Thickness {m}
  0.049,                                  !- Conductivity {W/m-K}
  265,                                    !- Density {kg/m3}
  836.800000000001,                       !- Specific Heat {J/kg-K}
  0.9,                                    !- Thermal Absorptance
  0.7,                                    !- Solar Absorptance
  0.7;                                    !- Visible Absorptance

OS:Material,
  {a8dcad50-0b22-46ac-9fff-9f4a79fcf2b2}, !- Handle
  Metal Decking,                          !- Name
  MediumSmooth,                           !- Roughness
  0.0015,                                 !- Thickness {m}
  45.006,                                 !- Conductivity {W/m-K}
  7680,                                   !- Density {kg/m3}
  418.4,                                  !- Specific Heat {J/kg-K}
  0.9,                                    !- Thermal Absorptance
  0.6,                                    !- Solar Absorptance
  0.6;                                    !- Visible Absorptance

OS:Construction,
  {8b32315c-9ccc-4d69-b2f0-525e833fadf6}, !- Handle
  ASHRAE 189.1-2009 ExtRoof IEAD ClimateZone 2-5, !- Name
  ,                                       !- Surface Rendering Name
  {fd9862d2-0b30-4927-a61d-b50e0548532d}, !- Layer 1
  {54d853f6-bac6-4e87-83b9-2e3b865ea748}, !- Layer 2
  {a8dcad50-0b22-46ac-9fff-9f4a79fcf2b2}; !- Layer 3

OS:StandardsInformation:Construction,
  {f29e2de7-9d60-45df-a903-f902b500a16e}, !- Handle
  {8b32315c-9ccc-4d69-b2f0-525e833fadf6}, !- Construction Name
  ExteriorRoof,                           !- Intended Surface Type
  IEAD;                                   !- Standards Construction Type

OS:Material,
  {54d853f6-bac6-4e87-83b9-2e3b865ea748}, !- Handle
  Roof Insulation [21],                   !- Name
  MediumRough,                            !- Roughness
  0.2105,                                 !- Thickness {m}
  0.049,                                  !- Conductivity {W/m-K}
  265,                                    !- Density {kg/m3}
  836.800000000001,                       !- Specific Heat {J/kg-K}
  0.9,                                    !- Thermal Absorptance
  0.7,                                    !- Solar Absorptance
  0.7;                                    !- Visible Absorptance

OS:Construction,
  {3a906b17-4b19-4c92-aab0-3c438e0a0fe0}, !- Handle
  ASHRAE 189.1-2009 ExtRoof IEAD ClimateZone 6, !- Name
  ,                                       !- Surface Rendering Name
  {fd9862d2-0b30-4927-a61d-b50e0548532d}, !- Layer 1
  {c92c7efe-80c4-4da6-938e-532fe135a9ea}, !- Layer 2
  {a8dcad50-0b22-46ac-9fff-9f4a79fcf2b2}; !- Layer 3

OS:StandardsInformation:Construction,
  {b451cefa-32ca-43b1-857f-3e342f799684}, !- Handle
  {3a906b17-4b19-4c92-aab0-3c438e0a0fe0}, !- Construction Name
  ExteriorRoof,                           !- Intended Surface Type
  IEAD;                                   !- Standards Construction Type

OS:Material,
  {c92c7efe-80c4-4da6-938e-532fe135a9ea}, !- Handle
  Roof Insulation [24],                   !- Name
  MediumRough,                            !- Roughness
  0.260100000000001,                      !- Thickness {m}
  0.049,                                  !- Conductivity {W/m-K}
  265,                                    !- Density {kg/m3}
  836.800000000001,                       !- Specific Heat {J/kg-K}
  0.9,                                    !- Thermal Absorptance
  0.7,                                    !- Solar Absorptance
  0.7;                                    !- Visible Absorptance

OS:Construction,
  {ce8080ee-9087-46c2-8264-87b8804a0fdc}, !- Handle
  ASHRAE 189.1-2009 ExtRoof IEAD ClimateZone 7-8, !- Name
  ,                                       !- Surface Rendering Name
  {fd9862d2-0b30-4927-a61d-b50e0548532d}, !- Layer 1
  {080c88bd-8c0c-48c7-85b9-bd0c23cfd117}, !- Layer 2
  {a8dcad50-0b22-46ac-9fff-9f4a79fcf2b2}; !- Layer 3

OS:StandardsInformation:Construction,
  {8ec4afc7-b8a1-43eb-b3c3-4f907c8e5bf0}, !- Handle
  {ce8080ee-9087-46c2-8264-87b8804a0fdc}, !- Construction Name
  ExteriorRoof,                           !- Intended Surface Type
  IEAD;                                   !- Standards Construction Type

OS:Material,
  {080c88bd-8c0c-48c7-85b9-bd0c23cfd117}, !- Handle
  Roof Insulation [26],                   !- Name
  MediumRough,                            !- Roughness
  0.2941,                                 !- Thickness {m}
  0.049,                                  !- Conductivity {W/m-K}
  265,                                    !- Density {kg/m3}
  836.800000000001,                       !- Specific Heat {J/kg-K}
  0.9,                                    !- Thermal Absorptance
  0.7,                                    !- Solar Absorptance
  0.7;                                    !- Visible Absorptance

OS:Construction,
  {8412452a-b484-4b31-b398-962461bbee16}, !- Handle
  ASHRAE 189.1-2009 ExtRoof Metal ClimateZone 1, !- Name
  ,                                       !- Surface Rendering Name
  {7d14610d-f364-41ea-bafd-dab3de1bd8bf}, !- Layer 1
  {06cb2b9b-1ba3-4846-a6de-f96bf33f5ac4}, !- Layer 2
  {a8dcad50-0b22-46ac-9fff-9f4a79fcf2b2}; !- Layer 3

OS:StandardsInformation:Construction,
  {8c2bc595-8999-48f3-857f-24feac1b7a2e}, !- Handle
  {8412452a-b484-4b31-b398-962461bbee16}, !- Construction Name
  ExteriorRoof,                           !- Intended Surface Type
  Metal;                                  !- Standards Construction Type

OS:Material,
  {7d14610d-f364-41ea-bafd-dab3de1bd8bf}, !- Handle
  Metal Roofing,                          !- Name
  MediumSmooth,                           !- Roughness
  0.0015,                                 !- Thickness {m}
  45.006,                                 !- Conductivity {W/m-K}
  7680,                                   !- Density {kg/m3}
  418.4,                                  !- Specific Heat {J/kg-K}
  0.9,                                    !- Thermal Absorptance
  0.6,                                    !- Solar Absorptance
  0.6;                                    !- Visible Absorptance

OS:Material,
  {06cb2b9b-1ba3-4846-a6de-f96bf33f5ac4}, !- Handle
  Roof Insulation [19],                   !- Name
  MediumRough,                            !- Roughness
  0.1868,                                 !- Thickness {m}
  0.049,                                  !- Conductivity {W/m-K}
  265,                                    !- Density {kg/m3}
  836.800000000001,                       !- Specific Heat {J/kg-K}
  0.9,                                    !- Thermal Absorptance
  0.7,                                    !- Solar Absorptance
  0.7;                                    !- Visible Absorptance

OS:Construction,
  {05d80ef0-e57f-4cf8-a660-048937959ac4}, !- Handle
  ASHRAE 189.1-2009 ExtRoof Metal ClimateZone 2-5, !- Name
  ,                                       !- Surface Rendering Name
  {7d14610d-f364-41ea-bafd-dab3de1bd8bf}, !- Layer 1
  {626fa46c-893f-4fd9-8e9c-5b1e4d678c6b}, !- Layer 2
  {a8dcad50-0b22-46ac-9fff-9f4a79fcf2b2}; !- Layer 3

OS:StandardsInformation:Construction,
  {1b4b6e58-da9e-44cf-9449-3c4b796bf9f2}, !- Handle
  {05d80ef0-e57f-4cf8-a660-048937959ac4}, !- Construction Name
  ExteriorRoof,                           !- Intended Surface Type
  Metal;                                  !- Standards Construction Type

OS:Material,
  {626fa46c-893f-4fd9-8e9c-5b1e4d678c6b}, !- Handle
  Roof Insulation [22],                   !- Name
  MediumRough,                            !- Roughness
  0.2358,                                 !- Thickness {m}
  0.049,                                  !- Conductivity {W/m-K}
  265,                                    !- Density {kg/m3}
  836.800000000001,                       !- Specific Heat {J/kg-K}
  0.9,                                    !- Thermal Absorptance
  0.7,                                    !- Solar Absorptance
  0.7;                                    !- Visible Absorptance

OS:Construction,
  {a07447a0-400d-46ca-b42a-5cbe610d5187}, !- Handle
  ASHRAE 189.1-2009 ExtRoof Metal ClimateZone 6, !- Name
  ,                                       !- Surface Rendering Name
  {7d14610d-f364-41ea-bafd-dab3de1bd8bf}, !- Layer 1
  {8ce026ea-f1a9-4d52-a977-94c35ee52a00}, !- Layer 2
  {a8dcad50-0b22-46ac-9fff-9f4a79fcf2b2}; !- Layer 3

OS:StandardsInformation:Construction,
  {10950711-6ec4-4299-8e85-3d929043ed11}, !- Handle
  {a07447a0-400d-46ca-b42a-5cbe610d5187}, !- Construction Name
  ExteriorRoof,                           !- Intended Surface Type
  Metal;                                  !- Standards Construction Type

OS:Material,
  {8ce026ea-f1a9-4d52-a977-94c35ee52a00}, !- Handle
  Roof Insulation [25],                   !- Name
  MediumRough,                            !- Roughness
  0.263,                                  !- Thickness {m}
  0.049,                                  !- Conductivity {W/m-K}
  265,                                    !- Density {kg/m3}
  836.800000000001,                       !- Specific Heat {J/kg-K}
  0.9,                                    !- Thermal Absorptance
  0.7,                                    !- Solar Absorptance
  0.7;                                    !- Visible Absorptance

OS:Construction,
  {9aaaf0ce-983e-414b-8749-99e8e5f89be2}, !- Handle
  ASHRAE 189.1-2009 ExtRoof Metal ClimateZone 7-8, !- Name
  ,                                       !- Surface Rendering Name
  {7d14610d-f364-41ea-bafd-dab3de1bd8bf}, !- Layer 1
  {3fb1acef-a346-4b95-9c79-0b8c6d82024f}, !- Layer 2
  {a8dcad50-0b22-46ac-9fff-9f4a79fcf2b2}; !- Layer 3

OS:StandardsInformation:Construction,
  {6b657b07-602a-41ee-b1de-84ac34833dd7}, !- Handle
  {9aaaf0ce-983e-414b-8749-99e8e5f89be2}, !- Construction Name
  ExteriorRoof,                           !- Intended Surface Type
  Metal;                                  !- Standards Construction Type

OS:Material,
  {3fb1acef-a346-4b95-9c79-0b8c6d82024f}, !- Handle
  Roof Insulation [27],                   !- Name
  MediumRough,                            !- Roughness
  0.297000000000001,                      !- Thickness {m}
  0.049,                                  !- Conductivity {W/m-K}
  265,                                    !- Density {kg/m3}
  836.800000000001,                       !- Specific Heat {J/kg-K}
  0.9,                                    !- Thermal Absorptance
  0.7,                                    !- Solar Absorptance
  0.7;                                    !- Visible Absorptance

OS:Construction,
  {bcde1ee2-b5ab-4294-a018-25134209e1d6}, !- Handle
  ASHRAE 189.1-2009 ExtWall Mass ClimateZone 1, !- Name
  ,                                       !- Surface Rendering Name
  {dd136f3d-a554-496b-9182-2e66b8516653}, !- Layer 1
  {abd4268d-0520-4003-b852-7f2d2c886c88}, !- Layer 2
  {fc4baa4c-33dc-4ad9-a612-308532b1e155}, !- Layer 3
  {b886417d-4dc5-43be-971f-62d0743b2710}; !- Layer 4

OS:StandardsInformation:Construction,
  {32f946b8-17c0-4c30-8747-1ef711b3013a}, !- Handle
  {bcde1ee2-b5ab-4294-a018-25134209e1d6}, !- Construction Name
  ExteriorWall,                           !- Intended Surface Type
  Mass;                                   !- Standards Construction Type

OS:Material,
  {dd136f3d-a554-496b-9182-2e66b8516653}, !- Handle
  1IN Stucco,                             !- Name
  Smooth,                                 !- Roughness
  0.0253,                                 !- Thickness {m}
  0.691799999999999,                      !- Conductivity {W/m-K}
  1858,                                   !- Density {kg/m3}
  836.999999999999,                       !- Specific Heat {J/kg-K}
  0.9,                                    !- Thermal Absorptance
  0.92,                                   !- Solar Absorptance
  0.92;                                   !- Visible Absorptance

OS:Material,
  {abd4268d-0520-4003-b852-7f2d2c886c88}, !- Handle
  8IN Concrete HW,                        !- Name
  MediumRough,                            !- Roughness
  0.2033,                                 !- Thickness {m}
  1.72959999999999,                       !- Conductivity {W/m-K}
  2242.99999999999,                       !- Density {kg/m3}
  836.999999999999,                       !- Specific Heat {J/kg-K}
  0.9,                                    !- Thermal Absorptance
  0.65,                                   !- Solar Absorptance
  0.65;                                   !- Visible Absorptance

OS:Material,
  {fc4baa4c-33dc-4ad9-a612-308532b1e155}, !- Handle
  Wall Insulation [31],                   !- Name
  MediumRough,                            !- Roughness
  0.0337000000000001,                     !- Thickness {m}
  0.0432,                                 !- Conductivity {W/m-K}
  91,                                     !- Density {kg/m3}
  836.999999999999,                       !- Specific Heat {J/kg-K}
  0.9,                                    !- Thermal Absorptance
  0.5,                                    !- Solar Absorptance
  0.5;                                    !- Visible Absorptance

OS:Construction,
  {4b9fc584-84e3-4b89-adec-7f2f68df4762}, !- Handle
  ASHRAE 189.1-2009 ExtWall Mass ClimateZone 2, !- Name
  ,                                       !- Surface Rendering Name
  {dd136f3d-a554-496b-9182-2e66b8516653}, !- Layer 1
  {abd4268d-0520-4003-b852-7f2d2c886c88}, !- Layer 2
  {d5a182b6-bdff-4d55-b0d8-f7261e460d1d}, !- Layer 3
  {b886417d-4dc5-43be-971f-62d0743b2710}; !- Layer 4

OS:StandardsInformation:Construction,
  {2b97cc17-dd8c-4ee3-9ae1-bf224570d8b7}, !- Handle
  {4b9fc584-84e3-4b89-adec-7f2f68df4762}, !- Construction Name
  ExteriorWall,                           !- Intended Surface Type
  Mass;                                   !- Standards Construction Type

OS:Material,
  {d5a182b6-bdff-4d55-b0d8-f7261e460d1d}, !- Handle
  Wall Insulation [35],                   !- Name
  MediumRough,                            !- Roughness
  0.0452,                                 !- Thickness {m}
  0.0432,                                 !- Conductivity {W/m-K}
  91,                                     !- Density {kg/m3}
  836.999999999999,                       !- Specific Heat {J/kg-K}
  0.9,                                    !- Thermal Absorptance
  0.5,                                    !- Solar Absorptance
  0.5;                                    !- Visible Absorptance

OS:Construction,
  {40389bac-4c2f-4bbf-b736-75911151f2c8}, !- Handle
  ASHRAE 189.1-2009 ExtWall Mass ClimateZone 3, !- Name
  ,                                       !- Surface Rendering Name
  {dd136f3d-a554-496b-9182-2e66b8516653}, !- Layer 1
  {abd4268d-0520-4003-b852-7f2d2c886c88}, !- Layer 2
  {702f8427-daba-4376-93a8-c2ac618fa3d0}, !- Layer 3
  {b886417d-4dc5-43be-971f-62d0743b2710}; !- Layer 4

OS:StandardsInformation:Construction,
  {5d087618-da1a-47f5-951d-a5c5cb8679b0}, !- Handle
  {40389bac-4c2f-4bbf-b736-75911151f2c8}, !- Construction Name
  ExteriorWall,                           !- Intended Surface Type
  Mass;                                   !- Standards Construction Type

OS:Material,
  {702f8427-daba-4376-93a8-c2ac618fa3d0}, !- Handle
  Wall Insulation [36],                   !- Name
  MediumRough,                            !- Roughness
  0.0565999999999999,                     !- Thickness {m}
  0.0432,                                 !- Conductivity {W/m-K}
  91,                                     !- Density {kg/m3}
  836.999999999999,                       !- Specific Heat {J/kg-K}
  0.9,                                    !- Thermal Absorptance
  0.5,                                    !- Solar Absorptance
  0.5;                                    !- Visible Absorptance

OS:Construction,
  {ebb0ddf1-f0c8-45ab-b794-a605b462b44f}, !- Handle
  ASHRAE 189.1-2009 ExtWall Mass ClimateZone 4, !- Name
  ,                                       !- Surface Rendering Name
  {dd136f3d-a554-496b-9182-2e66b8516653}, !- Layer 1
  {abd4268d-0520-4003-b852-7f2d2c886c88}, !- Layer 2
  {d87718de-deb8-4a7c-a22b-e59638a53823}, !- Layer 3
  {b886417d-4dc5-43be-971f-62d0743b2710}; !- Layer 4

OS:StandardsInformation:Construction,
  {9691588e-c190-441c-a21e-914adaaeb7ef}, !- Handle
  {ebb0ddf1-f0c8-45ab-b794-a605b462b44f}, !- Construction Name
  ExteriorWall,                           !- Intended Surface Type
  Mass;                                   !- Standards Construction Type

OS:Material,
  {d87718de-deb8-4a7c-a22b-e59638a53823}, !- Handle
  Wall Insulation [37],                   !- Name
  MediumRough,                            !- Roughness
  0.0680999999999999,                     !- Thickness {m}
  0.0432,                                 !- Conductivity {W/m-K}
  91,                                     !- Density {kg/m3}
  836.999999999999,                       !- Specific Heat {J/kg-K}
  0.9,                                    !- Thermal Absorptance
  0.5,                                    !- Solar Absorptance
  0.5;                                    !- Visible Absorptance

OS:Construction,
  {9e63cd7c-d799-4f6a-bbc6-7cbc6f9a9a88}, !- Handle
  ASHRAE 189.1-2009 ExtWall Mass ClimateZone 5, !- Name
  ,                                       !- Surface Rendering Name
  {dd136f3d-a554-496b-9182-2e66b8516653}, !- Layer 1
  {abd4268d-0520-4003-b852-7f2d2c886c88}, !- Layer 2
  {61237d95-7aba-4ce8-93c9-0fb109f446c4}, !- Layer 3
  {b886417d-4dc5-43be-971f-62d0743b2710}; !- Layer 4

OS:StandardsInformation:Construction,
  {60f5d97c-4b9f-4a45-b3c6-88787f4c5db6}, !- Handle
  {9e63cd7c-d799-4f6a-bbc6-7cbc6f9a9a88}, !- Construction Name
  ExteriorWall,                           !- Intended Surface Type
  Mass;                                   !- Standards Construction Type

OS:Material,
  {61237d95-7aba-4ce8-93c9-0fb109f446c4}, !- Handle
  Wall Insulation [40],                   !- Name
  MediumRough,                            !- Roughness
  0.0793999999999999,                     !- Thickness {m}
  0.0432,                                 !- Conductivity {W/m-K}
  91,                                     !- Density {kg/m3}
  836.999999999999,                       !- Specific Heat {J/kg-K}
  0.9,                                    !- Thermal Absorptance
  0.5,                                    !- Solar Absorptance
  0.5;                                    !- Visible Absorptance

OS:Construction,
  {551636b2-cf51-4600-9eeb-c59e539ad75c}, !- Handle
  ASHRAE 189.1-2009 ExtWall Mass ClimateZone 6, !- Name
  ,                                       !- Surface Rendering Name
  {dd136f3d-a554-496b-9182-2e66b8516653}, !- Layer 1
  {abd4268d-0520-4003-b852-7f2d2c886c88}, !- Layer 2
  {fbd8fd00-2c81-43a6-bb50-c7283bac27e2}, !- Layer 3
  {b886417d-4dc5-43be-971f-62d0743b2710}; !- Layer 4

OS:StandardsInformation:Construction,
  {f796a80b-ee7d-46fd-aefe-75784d13dcc3}, !- Handle
  {551636b2-cf51-4600-9eeb-c59e539ad75c}, !- Construction Name
  ExteriorWall,                           !- Intended Surface Type
  Mass;                                   !- Standards Construction Type

OS:Material,
  {fbd8fd00-2c81-43a6-bb50-c7283bac27e2}, !- Handle
  Wall Insulation [42],                   !- Name
  MediumRough,                            !- Roughness
  0.0913999999999999,                     !- Thickness {m}
  0.0432,                                 !- Conductivity {W/m-K}
  91,                                     !- Density {kg/m3}
  836.999999999999,                       !- Specific Heat {J/kg-K}
  0.9,                                    !- Thermal Absorptance
  0.5,                                    !- Solar Absorptance
  0.5;                                    !- Visible Absorptance

OS:Construction,
  {dbec00eb-1632-4c4a-86b2-cb55916830de}, !- Handle
  ASHRAE 189.1-2009 ExtWall Mass ClimateZone 7-8, !- Name
  ,                                       !- Surface Rendering Name
  {dd136f3d-a554-496b-9182-2e66b8516653}, !- Layer 1
  {abd4268d-0520-4003-b852-7f2d2c886c88}, !- Layer 2
  {91526295-2f40-4b1d-bfb5-5a85afce85d0}, !- Layer 3
  {b886417d-4dc5-43be-971f-62d0743b2710}; !- Layer 4

OS:StandardsInformation:Construction,
  {308a2d31-3eae-4555-90f0-eacc0b7d4867}, !- Handle
  {dbec00eb-1632-4c4a-86b2-cb55916830de}, !- Construction Name
  ExteriorWall,                           !- Intended Surface Type
  Mass;                                   !- Standards Construction Type

OS:Material,
  {91526295-2f40-4b1d-bfb5-5a85afce85d0}, !- Handle
  Wall Insulation [44],                   !- Name
  MediumRough,                            !- Roughness
  0.1104,                                 !- Thickness {m}
  0.0432,                                 !- Conductivity {W/m-K}
  91,                                     !- Density {kg/m3}
  836.999999999999,                       !- Specific Heat {J/kg-K}
  0.9,                                    !- Thermal Absorptance
  0.5,                                    !- Solar Absorptance
  0.5;                                    !- Visible Absorptance

OS:Construction,
  {4f85d04a-6876-4f8f-a688-42757df39cca}, !- Handle
  ASHRAE 189.1-2009 ExtWall Mass ClimateZone alt-res 1, !- Name
  ,                                       !- Surface Rendering Name
  {dd136f3d-a554-496b-9182-2e66b8516653}, !- Layer 1
  {abd4268d-0520-4003-b852-7f2d2c886c88}, !- Layer 2
  {d5a182b6-bdff-4d55-b0d8-f7261e460d1d}, !- Layer 3
  {b886417d-4dc5-43be-971f-62d0743b2710}; !- Layer 4

OS:StandardsInformation:Construction,
  {c936135e-6e7a-4acb-b01b-deb422ec054a}, !- Handle
  {4f85d04a-6876-4f8f-a688-42757df39cca}, !- Construction Name
  ExteriorWall,                           !- Intended Surface Type
  Mass;                                   !- Standards Construction Type

OS:Construction,
  {3effc5ca-bdac-4b25-a62d-62816c937c1d}, !- Handle
  ASHRAE 189.1-2009 ExtWall Mass ClimateZone alt-res 2, !- Name
  ,                                       !- Surface Rendering Name
  {dd136f3d-a554-496b-9182-2e66b8516653}, !- Layer 1
  {abd4268d-0520-4003-b852-7f2d2c886c88}, !- Layer 2
  {702f8427-daba-4376-93a8-c2ac618fa3d0}, !- Layer 3
  {b886417d-4dc5-43be-971f-62d0743b2710}; !- Layer 4

OS:StandardsInformation:Construction,
  {c10debc3-48d6-41f3-a84a-c664d4dc65d9}, !- Handle
  {3effc5ca-bdac-4b25-a62d-62816c937c1d}, !- Construction Name
  ExteriorWall,                           !- Intended Surface Type
  Mass;                                   !- Standards Construction Type

OS:Construction,
  {8e13a4e6-5352-4af4-a0c4-c4a299e5dc45}, !- Handle
  ASHRAE 189.1-2009 ExtWall Mass ClimateZone alt-res 3, !- Name
  ,                                       !- Surface Rendering Name
  {dd136f3d-a554-496b-9182-2e66b8516653}, !- Layer 1
  {abd4268d-0520-4003-b852-7f2d2c886c88}, !- Layer 2
  {d87718de-deb8-4a7c-a22b-e59638a53823}, !- Layer 3
  {b886417d-4dc5-43be-971f-62d0743b2710}; !- Layer 4

OS:StandardsInformation:Construction,
  {36515a05-1ee3-41ce-bbba-2d5e54a656ea}, !- Handle
  {8e13a4e6-5352-4af4-a0c4-c4a299e5dc45}, !- Construction Name
  ExteriorWall,                           !- Intended Surface Type
  Mass;                                   !- Standards Construction Type

OS:Construction,
  {668d0118-94ee-4291-ab4b-f9affd55c8ec}, !- Handle
  ASHRAE 189.1-2009 ExtWall Mass ClimateZone alt-res 4, !- Name
  ,                                       !- Surface Rendering Name
  {dd136f3d-a554-496b-9182-2e66b8516653}, !- Layer 1
  {abd4268d-0520-4003-b852-7f2d2c886c88}, !- Layer 2
  {61237d95-7aba-4ce8-93c9-0fb109f446c4}, !- Layer 3
  {b886417d-4dc5-43be-971f-62d0743b2710}; !- Layer 4

OS:StandardsInformation:Construction,
  {66b92887-4fe1-4193-8ebc-5d4c3f2a1ec3}, !- Handle
  {668d0118-94ee-4291-ab4b-f9affd55c8ec}, !- Construction Name
  ExteriorWall,                           !- Intended Surface Type
  Mass;                                   !- Standards Construction Type

OS:Construction,
  {b62cb435-1d42-452a-9891-c676de0cd4d7}, !- Handle
  ASHRAE 189.1-2009 ExtWall Mass ClimateZone alt-res 5, !- Name
  ,                                       !- Surface Rendering Name
  {dd136f3d-a554-496b-9182-2e66b8516653}, !- Layer 1
  {abd4268d-0520-4003-b852-7f2d2c886c88}, !- Layer 2
  {fbd8fd00-2c81-43a6-bb50-c7283bac27e2}, !- Layer 3
  {b886417d-4dc5-43be-971f-62d0743b2710}; !- Layer 4

OS:StandardsInformation:Construction,
  {a980570b-cd0a-4a8b-936a-d1df36162f7b}, !- Handle
  {b62cb435-1d42-452a-9891-c676de0cd4d7}, !- Construction Name
  ExteriorWall,                           !- Intended Surface Type
  Mass;                                   !- Standards Construction Type

OS:Construction,
  {889f66e0-3517-4cc1-99f9-b41b59f9ba92}, !- Handle
  ASHRAE 189.1-2009 ExtWall Mass ClimateZone alt-res 6, !- Name
  ,                                       !- Surface Rendering Name
  {dd136f3d-a554-496b-9182-2e66b8516653}, !- Layer 1
  {abd4268d-0520-4003-b852-7f2d2c886c88}, !- Layer 2
  {91526295-2f40-4b1d-bfb5-5a85afce85d0}, !- Layer 3
  {b886417d-4dc5-43be-971f-62d0743b2710}; !- Layer 4

OS:StandardsInformation:Construction,
  {2ad9c9c0-4a39-4f4d-9c30-4869dfe945f0}, !- Handle
  {889f66e0-3517-4cc1-99f9-b41b59f9ba92}, !- Construction Name
  ExteriorWall,                           !- Intended Surface Type
  Mass;                                   !- Standards Construction Type

OS:Construction,
  {3c215349-79d8-41d1-a93c-bf7664964f77}, !- Handle
  ASHRAE 189.1-2009 ExtWall Mass ClimateZone alt-res 7, !- Name
  ,                                       !- Surface Rendering Name
  {dd136f3d-a554-496b-9182-2e66b8516653}, !- Layer 1
  {abd4268d-0520-4003-b852-7f2d2c886c88}, !- Layer 2
  {91526295-2f40-4b1d-bfb5-5a85afce85d0}, !- Layer 3
  {b886417d-4dc5-43be-971f-62d0743b2710}; !- Layer 4

OS:StandardsInformation:Construction,
  {61784a30-c810-4366-9047-f595c668fb3c}, !- Handle
  {3c215349-79d8-41d1-a93c-bf7664964f77}, !- Construction Name
  ExteriorWall,                           !- Intended Surface Type