
OS:Version,
  {0e564f0e-2947-4a94-853e-1eceba804aa9}, !- Handle
  1.4.0;                                  !- Version Identifier

OS:Construction,
  {6ff48014-905a-40ac-a4d8-50576e1de9e3}, !- Handle
  ASHRAE 189.1-2009 AtticFloor ClimateZone 1-8, !- Name
  ,                                       !- Surface Rendering Name
  {a91ee89a-5e9b-40e5-bd7b-648fdb540944}, !- Layer 1
  {b8800a73-1e6f-485e-9348-935cc3764c1d}, !- Layer 2
  {a91ee89a-5e9b-40e5-bd7b-648fdb540944}; !- Layer 3

OS:StandardsInformation:Construction,
  {2b82bd29-7883-4bdf-9268-6d447ef10653}, !- Handle
  {6ff48014-905a-40ac-a4d8-50576e1de9e3}, !- Construction Name
  AtticFloor,                             !- Intended Surface Type
  WoodFramed;                             !- Standards Construction Type

OS:Material,
  {a91ee89a-5e9b-40e5-bd7b-648fdb540944}, !- Handle
  1/2IN Gypsum,                           !- Name
  Smooth,                                 !- Roughness
  0.0127,                                 !- Thickness {m}
  0.16,                                   !- Conductivity {W/m-K}
  784.9,                                  !- Density {kg/m3}
  830.000000000001,                       !- Specific Heat {J/kg-K}
  0.9,                                    !- Thermal Absorptance
  0.4,                                    !- Solar Absorptance
  0.4;                                    !- Visible Absorptance

OS:Material,
  {b8800a73-1e6f-485e-9348-935cc3764c1d}, !- Handle
  AtticFloor Insulation,                  !- Name
  MediumRough,                            !- Roughness
  0.2379,                                 !- Thickness {m}
  0.049,                                  !- Conductivity {W/m-K}
  265,                                    !- Density {kg/m3}
  836.800000000001,                       !- Specific Heat {J/kg-K}
  0.9,                                    !- Thermal Absorptance
  0.7,                                    !- Solar Absorptance
  0.7;                                    !- Visible Absorptance

OS:Construction,
  {aa68e101-3beb-494c-9032-873401553e85}, !- Handle
  ASHRAE 189.1-2009 ExtRoof IEAD ClimateZone 1, !- Name
  ,                                       !- Surface Rendering Name
  {e2bd33ed-83da-4103-8d67-6f5b55156f01}, !- Layer 1
  {88fe8413-ecac-4b40-9e8c-895cfaf55da7}, !- Layer 2
  {9d6f79ce-7793-41e2-a66e-511a777ba97f}; !- Layer 3

OS:StandardsInformation:Construction,
  {eae7ed33-0b42-4806-8e6a-bee21d3a21cd}, !- Handle
  {aa68e101-3beb-494c-9032-873401553e85}, !- Construction Name
  ExteriorRoof,                           !- Intended Surface Type
  IEAD;                                   !- Standards Construction Type

OS:Material,
  {e2bd33ed-83da-4103-8d67-6f5b55156f01}, !- Handle
  Roof Membrane,                          !- Name
  VeryRough,                              !- Roughness
  0.0095,                                 !- Thickness {m}
  0.16,                                   !- Conductivity {W/m-K}
  1121.29,                                !- Density {kg/m3}
  1460,                                   !- Specific Heat {J/kg-K}
  0.9,                                    !- Thermal Absorptance
  0.7,                                    !- Solar Absorptance
  0.7;                                    !- Visible Absorptance

OS:Material,
  {88fe8413-ecac-4b40-9e8c-895cfaf55da7}, !- Handle
  Roof Insulation [18],                   !- Name
  MediumRough,                            !- Roughness
  0.1693,                                 !- Thickness {m}
  0.049,                                  !- Conductivity {W/m-K}
  265,                                    !- Density {kg/m3}
  836.800000000001,                       !- Specific Heat {J/kg-K}
  0.9,                                    !- Thermal Absorptance
  0.7,                                    !- Solar Absorptance
  0.7;                                    !- Visible Absorptance

OS:Material,
  {9d6f79ce-7793-41e2-a66e-511a777ba97f}, !- Handle
  Metal Decking,                          !- Name
  MediumSmooth,                           !- Roughness
  0.0015,                                 !- Thickness {m}
  45.006,                                 !- Conductivity {W/m-K}
  7680,                                   !- Density {kg/m3}
  418.4,                                  !- Specific Heat {J/kg-K}
  0.9,                                    !- Thermal Absorptance
  0.6,                                    !- Solar Absorptance
  0.6;                                    !- Visible Absorptance

OS:Construction,
  {02d80bfe-8a32-48ab-8d9a-6dc388254c0c}, !- Handle
  ASHRAE 189.1-2009 ExtRoof IEAD ClimateZone 2-5, !- Name
  ,                                       !- Surface Rendering Name
  {e2bd33ed-83da-4103-8d67-6f5b55156f01}, !- Layer 1
  {dfb4cb0d-453f-4b71-8c08-bca2357459a7}, !- Layer 2
  {9d6f79ce-7793-41e2-a66e-511a777ba97f}; !- Layer 3

OS:StandardsInformation:Construction,
  {4648b206-2a96-46cb-897b-e563f489e1c2}, !- Handle
  {02d80bfe-8a32-48ab-8d9a-6dc388254c0c}, !- Construction Name
  ExteriorRoof,                           !- Intended Surface Type
  IEAD;                                   !- Standards Construction Type

OS:Material,
  {dfb4cb0d-453f-4b71-8c08-bca2357459a7}, !- Handle
  Roof Insulation [21],                   !- Name
  MediumRough,                            !- Roughness
  0.2105,                                 !- Thickness {m}
  0.049,                                  !- Conductivity {W/m-K}
  265,                                    !- Density {kg/m3}
  836.800000000001,                       !- Specific Heat {J/kg-K}
  0.9,                                    !- Thermal Absorptance
  0.7,                                    !- Solar Absorptance
  0.7;                                    !- Visible Absorptance

OS:Construction,
  {0e28caea-92dc-4260-9efe-3a8a32ad8582}, !- Handle
  ASHRAE 189.1-2009 ExtRoof IEAD ClimateZone 6, !- Name
  ,                                       !- Surface Rendering Name
  {e2bd33ed-83da-4103-8d67-6f5b55156f01}, !- Layer 1
  {67fbb80b-d07e-4a1a-82a1-18e99691f8ac}, !- Layer 2
  {9d6f79ce-7793-41e2-a66e-511a777ba97f}; !- Layer 3

OS:StandardsInformation:Construction,
  {0cd538a3-63c9-4e1f-a936-9ce2dab35da0}, !- Handle
  {0e28caea-92dc-4260-9efe-3a8a32ad8582}, !- Construction Name
  ExteriorRoof,                           !- Intended Surface Type
  IEAD;                                   !- Standards Construction Type

OS:Material,
  {67fbb80b-d07e-4a1a-82a1-18e99691f8ac}, !- Handle
  Roof Insulation [24],                   !- Name
  MediumRough,                            !- Roughness
  0.260100000000001,                      !- Thickness {m}
  0.049,                                  !- Conductivity {W/m-K}
  265,                                    !- Density {kg/m3}
  836.800000000001,                       !- Specific Heat {J/kg-K}
  0.9,                                    !- Thermal Absorptance
  0.7,                                    !- Solar Absorptance
  0.7;                                    !- Visible Absorptance

OS:Construction,
  {e6b1f1c0-0589-4a6f-9404-81942060f695}, !- Handle
  ASHRAE 189.1-2009 ExtRoof IEAD ClimateZone 7-8, !- Name
  ,                                       !- Surface Rendering Name
  {e2bd33ed-83da-4103-8d67-6f5b55156f01}, !- Layer 1
  {a64183ab-20da-41fb-99ab-9ebc2968c661}, !- Layer 2
  {9d6f79ce-7793-41e2-a66e-511a777ba97f}; !- Layer 3

OS:StandardsInformation:Construction,
  {67aac4d3-6216-4d3e-a75b-21a6a9c9cd83}, !- Handle
  {e6b1f1c0-0589-4a6f-9404-81942060f695}, !- Construction Name
  ExteriorRoof,                           !- Intended Surface Type
  IEAD;                                   !- Standards Construction Type

OS:Material,
  {a64183ab-20da-41fb-99ab-9ebc2968c661}, !- Handle
  Roof Insulation [26],                   !- Name
  MediumRough,                            !- Roughness
  0.2941,                                 !- Thickness {m}
  0.049,                                  !- Conductivity {W/m-K}
  265,                                    !- Density {kg/m3}
  836.800000000001,                       !- Specific Heat {J/kg-K}
  0.9,                                    !- Thermal Absorptance
  0.7,                                    !- Solar Absorptance
  0.7;                                    !- Visible Absorptance

OS:Construction,
  {2d08e2e8-7e27-4f26-bbdf-57205938be64}, !- Handle
  ASHRAE 189.1-2009 ExtRoof Metal ClimateZone 1, !- Name
  ,                                       !- Surface Rendering Name
  {c4db629a-dbda-442c-b086-cbac6d9fa90f}, !- Layer 1
  {a4dbc114-6816-49f2-b144-1e38d94541d4}, !- Layer 2
  {9d6f79ce-7793-41e2-a66e-511a777ba97f}; !- Layer 3

OS:StandardsInformation:Construction,
  {cf1c90a8-0282-4a33-94e8-41fd98d2a49c}, !- Handle
  {2d08e2e8-7e27-4f26-bbdf-57205938be64}, !- Construction Name
  ExteriorRoof,                           !- Intended Surface Type
  Metal;                                  !- Standards Construction Type

OS:Material,
  {c4db629a-dbda-442c-b086-cbac6d9fa90f}, !- Handle
  Metal Roofing,                          !- Name
  MediumSmooth,                           !- Roughness
  0.0015,                                 !- Thickness {m}
  45.006,                                 !- Conductivity {W/m-K}
  7680,                                   !- Density {kg/m3}
  418.4,                                  !- Specific Heat {J/kg-K}
  0.9,                                    !- Thermal Absorptance
  0.6,                                    !- Solar Absorptance
  0.6;                                    !- Visible Absorptance

OS:Material,
  {a4dbc114-6816-49f2-b144-1e38d94541d4}, !- Handle
  Roof Insulation [19],                   !- Name
  MediumRough,                            !- Roughness
  0.1868,                                 !- Thickness {m}
  0.049,                                  !- Conductivity {W/m-K}
  265,                                    !- Density {kg/m3}
  836.800000000001,                       !- Specific Heat {J/kg-K}
  0.9,                                    !- Thermal Absorptance
  0.7,                                    !- Solar Absorptance
  0.7;                                    !- Visible Absorptance

OS:Construction,
  {80acc2d4-c937-432a-a60b-9bc87eaa60d7}, !- Handle
  ASHRAE 189.1-2009 ExtRoof Metal ClimateZone 2-5, !- Name
  ,                                       !- Surface Rendering Name
  {c4db629a-dbda-442c-b086-cbac6d9fa90f}, !- Layer 1
  {b800e058-407a-4632-970e-2370a8cef10f}, !- Layer 2
  {9d6f79ce-7793-41e2-a66e-511a777ba97f}; !- Layer 3

OS:StandardsInformation:Construction,
  {aa9924ee-0dcf-4568-a236-03d65fbaa17c}, !- Handle
  {80acc2d4-c937-432a-a60b-9bc87eaa60d7}, !- Construction Name
  ExteriorRoof,                           !- Intended Surface Type
  Metal;                                  !- Standards Construction Type

OS:Material,
  {b800e058-407a-4632-970e-2370a8cef10f}, !- Handle
  Roof Insulation [22],                   !- Name
  MediumRough,                            !- Roughness
  0.2358,                                 !- Thickness {m}
  0.049,                                  !- Conductivity {W/m-K}
  265,                                    !- Density {kg/m3}
  836.800000000001,                       !- Specific Heat {J/kg-K}
  0.9,                                    !- Thermal Absorptance
  0.7,                                    !- Solar Absorptance
  0.7;                                    !- Visible Absorptance

OS:Construction,
  {5df8f7f1-f5ff-4550-b933-416656f51d6d}, !- Handle
  ASHRAE 189.1-2009 ExtRoof Metal ClimateZone 6, !- Name
  ,                                       !- Surface Rendering Name
  {c4db629a-dbda-442c-b086-cbac6d9fa90f}, !- Layer 1
  {5231c7ba-c704-4b8f-be38-e0440be24aa5}, !- Layer 2
  {9d6f79ce-7793-41e2-a66e-511a777ba97f}; !- Layer 3

OS:StandardsInformation:Construction,
  {c9fd1079-8359-449c-ad20-1664b456abff}, !- Handle
  {5df8f7f1-f5ff-4550-b933-416656f51d6d}, !- Construction Name
  ExteriorRoof,                           !- Intended Surface Type
  Metal;                                  !- Standards Construction Type

OS:Material,
  {5231c7ba-c704-4b8f-be38-e0440be24aa5}, !- Handle
  Roof Insulation [25],                   !- Name
  MediumRough,                            !- Roughness
  0.263,                                  !- Thickness {m}
  0.049,                                  !- Conductivity {W/m-K}
  265,                                    !- Density {kg/m3}
  836.800000000001,                       !- Specific Heat {J/kg-K}
  0.9,                                    !- Thermal Absorptance
  0.7,                                    !- Solar Absorptance
  0.7;                                    !- Visible Absorptance

OS:Construction,
  {16ec69dc-f449-4d3a-a927-c41c32e50f88}, !- Handle
  ASHRAE 189.1-2009 ExtRoof Metal ClimateZone 7-8, !- Name
  ,                                       !- Surface Rendering Name
  {c4db629a-dbda-442c-b086-cbac6d9fa90f}, !- Layer 1
  {2e900bf3-04b2-43cf-a404-08607a60a3a6}, !- Layer 2
  {9d6f79ce-7793-41e2-a66e-511a777ba97f}; !- Layer 3

OS:StandardsInformation:Construction,
  {67b28ecc-5208-4814-b72b-d704057bc4bf}, !- Handle
  {16ec69dc-f449-4d3a-a927-c41c32e50f88}, !- Construction Name
  ExteriorRoof,                           !- Intended Surface Type
  Metal;                                  !- Standards Construction Type

OS:Material,
  {2e900bf3-04b2-43cf-a404-08607a60a3a6}, !- Handle
  Roof Insulation [27],                   !- Name
  MediumRough,                            !- Roughness
  0.297000000000001,                      !- Thickness {m}
  0.049,                                  !- Conductivity {W/m-K}
  265,                                    !- Density {kg/m3}
  836.800000000001,                       !- Specific Heat {J/kg-K}
  0.9,                                    !- Thermal Absorptance
  0.7,                                    !- Solar Absorptance
  0.7;                                    !- Visible Absorptance

OS:Construction,
  {d8819c1f-1453-47b7-9fc0-bc6e8ea37f11}, !- Handle
  ASHRAE 189.1-2009 ExtWall Mass ClimateZone 1, !- Name
  ,                                       !- Surface Rendering Name
  {5c84e940-0ac0-4dea-8765-773485dc199c}, !- Layer 1
  {f84c173f-8311-446d-b5d8-91fa63b0a076}, !- Layer 2
  {bddbdb15-df04-4cdc-8e7e-7c1b63037fe8}, !- Layer 3
  {a91ee89a-5e9b-40e5-bd7b-648fdb540944}; !- Layer 4

OS:StandardsInformation:Construction,
  {157d1830-82f5-49d4-843f-1711bc71b78c}, !- Handle
  {d8819c1f-1453-47b7-9fc0-bc6e8ea37f11}, !- Construction Name
  ExteriorWall,                           !- Intended Surface Type
  Mass;                                   !- Standards Construction Type

OS:Material,
  {5c84e940-0ac0-4dea-8765-773485dc199c}, !- Handle
  1IN Stucco,                             !- Name
  Smooth,                                 !- Roughness
  0.0253,                                 !- Thickness {m}
  0.691799999999999,                      !- Conductivity {W/m-K}
  1858,                                   !- Density {kg/m3}
  836.999999999999,                       !- Specific Heat {J/kg-K}
  0.9,                                    !- Thermal Absorptance
  0.92,                                   !- Solar Absorptance
  0.92;                                   !- Visible Absorptance

OS:Material,
  {f84c173f-8311-446d-b5d8-91fa63b0a076}, !- Handle
  8IN Concrete HW,                        !- Name
  MediumRough,                            !- Roughness
  0.2033,                                 !- Thickness {m}
  1.72959999999999,                       !- Conductivity {W/m-K}
  2242.99999999999,                       !- Density {kg/m3}
  836.999999999999,                       !- Specific Heat {J/kg-K}
  0.9,                                    !- Thermal Absorptance
  0.65,                                   !- Solar Absorptance
  0.65;                                   !- Visible Absorptance

OS:Material,
  {bddbdb15-df04-4cdc-8e7e-7c1b63037fe8}, !- Handle
  Wall Insulation [31],                   !- Name
  MediumRough,                            !- Roughness
  0.0337000000000001,                     !- Thickness {m}
  0.0432,                                 !- Conductivity {W/m-K}
  91,                                     !- Density {kg/m3}
  836.999999999999,                       !- Specific Heat {J/kg-K}
  0.9,                                    !- Thermal Absorptance
  0.5,                                    !- Solar Absorptance
  0.5;                                    !- Visible Absorptance

OS:Construction,
  {d986e003-ccfb-4f65-9751-3d59c1e89a5d}, !- Handle
  ASHRAE 189.1-2009 ExtWall Mass ClimateZone 2, !- Name
  ,                                       !- Surface Rendering Name
  {5c84e940-0ac0-4dea-8765-773485dc199c}, !- Layer 1
  {f84c173f-8311-446d-b5d8-91fa63b0a076}, !- Layer 2
  {adefccd4-6e71-40dd-a126-a9a10cac38b2}, !- Layer 3
  {a91ee89a-5e9b-40e5-bd7b-648fdb540944}; !- Layer 4

OS:StandardsInformation:Construction,
  {09be7698-6031-4088-8fd1-6eb5f6310a10}, !- Handle
  {d986e003-ccfb-4f65-9751-3d59c1e89a5d}, !- Construction Name
  ExteriorWall,                           !- Intended Surface Type
  Mass;                                   !- Standards Construction Type

OS:Material,
  {adefccd4-6e71-40dd-a126-a9a10cac38b2}, !- Handle
  Wall Insulation [35],                   !- Name
  MediumRough,                            !- Roughness
  0.0452,                                 !- Thickness {m}
  0.0432,                                 !- Conductivity {W/m-K}
  91,                                     !- Density {kg/m3}
  836.999999999999,                       !- Specific Heat {J/kg-K}
  0.9,                                    !- Thermal Absorptance
  0.5,                                    !- Solar Absorptance
  0.5;                                    !- Visible Absorptance

OS:Construction,
  {dba34b70-4433-4076-b182-80d2922d84d6}, !- Handle
  ASHRAE 189.1-2009 ExtWall Mass ClimateZone 3, !- Name
  ,                                       !- Surface Rendering Name
  {5c84e940-0ac0-4dea-8765-773485dc199c}, !- Layer 1
  {f84c173f-8311-446d-b5d8-91fa63b0a076}, !- Layer 2
  {758d27e3-bca6-4818-b1dd-f6152fe4903f}, !- Layer 3
  {a91ee89a-5e9b-40e5-bd7b-648fdb540944}; !- Layer 4

OS:StandardsInformation:Construction,
  {f27d7e43-33d5-4c03-91eb-907a9834fb0b}, !- Handle
  {dba34b70-4433-4076-b182-80d2922d84d6}, !- Construction Name
  ExteriorWall,                           !- Intended Surface Type
  Mass;                                   !- Standards Construction Type

OS:Material,
  {758d27e3-bca6-4818-b1dd-f6152fe4903f}, !- Handle
  Wall Insulation [36],                   !- Name
  MediumRough,                            !- Roughness
  0.0565999999999999,                     !- Thickness {m}
  0.0432,                                 !- Conductivity {W/m-K}
  91,                                     !- Density {kg/m3}
  836.999999999999,                       !- Specific Heat {J/kg-K}
  0.9,                                    !- Thermal Absorptance
  0.5,                                    !- Solar Absorptance
  0.5;                                    !- Visible Absorptance

OS:Construction,
  {0a4d6ab2-bb7d-41a4-bb25-25fd61923f4c}, !- Handle
  ASHRAE 189.1-2009 ExtWall Mass ClimateZone 4, !- Name
  ,                                       !- Surface Rendering Name
  {5c84e940-0ac0-4dea-8765-773485dc199c}, !- Layer 1
  {f84c173f-8311-446d-b5d8-91fa63b0a076}, !- Layer 2
  {eab65421-2484-4939-933d-55f882be0bfc}, !- Layer 3
  {a91ee89a-5e9b-40e5-bd7b-648fdb540944}; !- Layer 4

OS:StandardsInformation:Construction,
  {517e91b6-4bec-40cb-8e1b-650a77fa6fa0}, !- Handle
  {0a4d6ab2-bb7d-41a4-bb25-25fd61923f4c}, !- Construction Name
  ExteriorWall,                           !- Intended Surface Type
  Mass;                                   !- Standards Construction Type

OS:Material,
  {eab65421-2484-4939-933d-55f882be0bfc}, !- Handle
  Wall Insulation [37],                   !- Name
  MediumRough,                            !- Roughness
  0.0680999999999999,                     !- Thickness {m}
  0.0432,                                 !- Conductivity {W/m-K}
  91,                                     !- Density {kg/m3}
  836.999999999999,                       !- Specific Heat {J/kg-K}
  0.9,                                    !- Thermal Absorptance
  0.5,                                    !- Solar Absorptance
  0.5;                                    !- Visible Absorptance

OS:Construction,
  {493b30d5-f95d-4e16-8608-df4e4da20959}, !- Handle
  ASHRAE 189.1-2009 ExtWall Mass ClimateZone 5, !- Name
  ,                                       !- Surface Rendering Name
  {5c84e940-0ac0-4dea-8765-773485dc199c}, !- Layer 1
  {f84c173f-8311-446d-b5d8-91fa63b0a076}, !- Layer 2
  {8e1656cf-6709-428a-910e-09c5bbb89a71}, !- Layer 3
  {a91ee89a-5e9b-40e5-bd7b-648fdb540944}; !- Layer 4

OS:StandardsInformation:Construction,
  {cae86e1b-80ba-4ef3-9b30-54f2394a97ab}, !- Handle
  {493b30d5-f95d-4e16-8608-df4e4da20959}, !- Construction Name
  ExteriorWall,                           !- Intended Surface Type
  Mass;                                   !- Standards Construction Type

OS:Material,
  {8e1656cf-6709-428a-910e-09c5bbb89a71}, !- Handle
  Wall Insulation [40],                   !- Name
  MediumRough,                            !- Roughness
  0.0793999999999999,                     !- Thickness {m}
  0.0432,                                 !- Conductivity {W/m-K}
  91,                                     !- Density {kg/m3}
  836.999999999999,                       !- Specific Heat {J/kg-K}
  0.9,                                    !- Thermal Absorptance
  0.5,                                    !- Solar Absorptance
  0.5;                                    !- Visible Absorptance

OS:Construction,
  {eac5061e-4c5d-4757-b70c-442a60bcd5ab}, !- Handle
  ASHRAE 189.1-2009 ExtWall Mass ClimateZone 6, !- Name
  ,                                       !- Surface Rendering Name
  {5c84e940-0ac0-4dea-8765-773485dc199c}, !- Layer 1
  {f84c173f-8311-446d-b5d8-91fa63b0a076}, !- Layer 2
  {f999ca38-afc1-41d6-af0e-005a318e23be}, !- Layer 3
  {a91ee89a-5e9b-40e5-bd7b-648fdb540944}; !- Layer 4

OS:StandardsInformation:Construction,
  {28cb53eb-612b-4db4-883e-f1d2261cffc9}, !- Handle
  {eac5061e-4c5d-4757-b70c-442a60bcd5ab}, !- Construction Name
  ExteriorWall,                           !- Intended Surface Type
  Mass;                                   !- Standards Construction Type

OS:Material,
  {f999ca38-afc1-41d6-af0e-005a318e23be}, !- Handle
  Wall Insulation [42],                   !- Name
  MediumRough,                            !- Roughness
  0.0913999999999999,                     !- Thickness {m}
  0.0432,                                 !- Conductivity {W/m-K}
  91,                                     !- Density {kg/m3}
  836.999999999999,                       !- Specific Heat {J/kg-K}
  0.9,                                    !- Thermal Absorptance
  0.5,                                    !- Solar Absorptance
  0.5;                                    !- Visible Absorptance

OS:Construction,
  {3e55fc2f-680d-4f60-a3c5-f1b332fd9ca6}, !- Handle
  ASHRAE 189.1-2009 ExtWall Mass ClimateZone 7-8, !- Name
  ,                                       !- Surface Rendering Name
  {5c84e940-0ac0-4dea-8765-773485dc199c}, !- Layer 1
  {f84c173f-8311-446d-b5d8-91fa63b0a076}, !- Layer 2
  {5fd1703c-4cef-48f5-a4a7-d8721728c640}, !- Layer 3
  {a91ee89a-5e9b-40e5-bd7b-648fdb540944}; !- Layer 4

OS:StandardsInformation:Construction,
  {735c5afe-c8b9-4f17-979c-b39ebed9bb30}, !- Handle
  {3e55fc2f-680d-4f60-a3c5-f1b332fd9ca6}, !- Construction Name
  ExteriorWall,                           !- Intended Surface Type
  Mass;                                   !- Standards Construction Type

OS:Material,
  {5fd1703c-4cef-48f5-a4a7-d8721728c640}, !- Handle
  Wall Insulation [44],                   !- Name
  MediumRough,                            !- Roughness
  0.1104,                                 !- Thickness {m}
  0.0432,                                 !- Conductivity {W/m-K}
  91,                                     !- Density {kg/m3}
  836.999999999999,                       !- Specific Heat {J/kg-K}
  0.9,                                    !- Thermal Absorptance
  0.5,                                    !- Solar Absorptance
  0.5;                                    !- Visible Absorptance

OS:Construction,
  {ddbe7990-28ae-4f19-b765-11f3a77cc65a}, !- Handle
  ASHRAE 189.1-2009 ExtWall Mass ClimateZone alt-res 1, !- Name
  ,                                       !- Surface Rendering Name
  {5c84e940-0ac0-4dea-8765-773485dc199c}, !- Layer 1
  {f84c173f-8311-446d-b5d8-91fa63b0a076}, !- Layer 2
  {adefccd4-6e71-40dd-a126-a9a10cac38b2}, !- Layer 3
  {a91ee89a-5e9b-40e5-bd7b-648fdb540944}; !- Layer 4

OS:StandardsInformation:Construction,
  {62f8d819-fbc5-43b6-9de8-5295721af7ed}, !- Handle
  {ddbe7990-28ae-4f19-b765-11f3a77cc65a}, !- Construction Name
  ExteriorWall,                           !- Intended Surface Type
  Mass;                                   !- Standards Construction Type

OS:Construction,
  {f18cf85c-62c0-43d8-923e-f69b211fce46}, !- Handle
  ASHRAE 189.1-2009 ExtWall Mass ClimateZone alt-res 2, !- Name
  ,                                       !- Surface Rendering Name
  {5c84e940-0ac0-4dea-8765-773485dc199c}, !- Layer 1
  {f84c173f-8311-446d-b5d8-91fa63b0a076}, !- Layer 2
  {758d27e3-bca6-4818-b1dd-f6152fe4903f}, !- Layer 3
  {a91ee89a-5e9b-40e5-bd7b-648fdb540944}; !- Layer 4

OS:StandardsInformation:Construction,
  {9136969c-fe40-45e4-ba6e-91e7d90b8574}, !- Handle
  {f18cf85c-62c0-43d8-923e-f69b211fce46}, !- Construction Name
  ExteriorWall,                           !- Intended Surface Type
  Mass;                                   !- Standards Construction Type

OS:Construction,
  {fdcc1fbc-dbe4-4caf-aab8-f8f0ec29cd29}, !- Handle
  ASHRAE 189.1-2009 ExtWall Mass ClimateZone alt-res 3, !- Name
  ,                                       !- Surface Rendering Name
  {5c84e940-0ac0-4dea-8765-773485dc199c}, !- Layer 1
  {f84c173f-8311-446d-b5d8-91fa63b0a076}, !- Layer 2
  {eab65421-2484-4939-933d-55f882be0bfc}, !- Layer 3
  {a91ee89a-5e9b-40e5-bd7b-648fdb540944}; !- Layer 4

OS:StandardsInformation:Construction,
  {2337b169-e332-47a2-81ea-511a68a2dc41}, !- Handle
  {fdcc1fbc-dbe4-4caf-aab8-f8f0ec29cd29}, !- Construction Name
  ExteriorWall,                           !- Intended Surface Type
  Mass;                                   !- Standards Construction Type

OS:Construction,
  {7e7f3b0a-cdbe-49e9-b2e6-6371fa4b5277}, !- Handle
  ASHRAE 189.1-2009 ExtWall Mass ClimateZone alt-res 4, !- Name
  ,                                       !- Surface Rendering Name
  {5c84e940-0ac0-4dea-8765-773485dc199c}, !- Layer 1
  {f84c173f-8311-446d-b5d8-91fa63b0a076}, !- Layer 2
  {8e1656cf-6709-428a-910e-09c5bbb89a71}, !- Layer 3
  {a91ee89a-5e9b-40e5-bd7b-648fdb540944}; !- Layer 4

OS:StandardsInformation:Construction,
  {7e9f3f30-62c8-4dd4-839d-83645488e478}, !- Handle
  {7e7f3b0a-cdbe-49e9-b2e6-6371fa4b5277}, !- Construction Name
  ExteriorWall,                           !- Intended Surface Type
  Mass;                                   !- Standards Construction Type

OS:Construction,
  {add10e4d-edf0-4707-84cf-3fcf42271b2c}, !- Handle
  ASHRAE 189.1-2009 ExtWall Mass ClimateZone alt-res 5, !- Name
  ,                                       !- Surface Rendering Name
  {5c84e940-0ac0-4dea-8765-773485dc199c}, !- Layer 1
  {f84c173f-8311-446d-b5d8-91fa63b0a076}, !- Layer 2
  {f999ca38-afc1-41d6-af0e-005a318e23be}, !- Layer 3
  {a91ee89a-5e9b-40e5-bd7b-648fdb540944}; !- Layer 4

OS:StandardsInformation:Construction,
  {36e86e24-0448-489e-9c58-7d9b12f24de0}, !- Handle
  {add10e4d-edf0-4707-84cf-3fcf42271b2c}, !- Construction Name
  ExteriorWall,                           !- Intended Surface Type
  Mass;                                   !- Standards Construction Type

OS:Construction,
  {7eaf068e-1947-460f-97df-bf0edf703758}, !- Handle
  ASHRAE 189.1-2009 ExtWall Mass ClimateZone alt-res 6, !- Name
  ,                                       !- Surface Rendering Name
  {5c84e940-0ac0-4dea-8765-773485dc199c}, !- Layer 1
  {f84c173f-8311-446d-b5d8-91fa63b0a076}, !- Layer 2
  {5fd1703c-4cef-48f5-a4a7-d8721728c640}, !- Layer 3
  {a91ee89a-5e9b-40e5-bd7b-648fdb540944}; !- Layer 4

OS:StandardsInformation:Construction,
  {5060604f-c265-4c7e-9cd3-997611720b86}, !- Handle
  {7eaf068e-1947-460f-97df-bf0edf703758}, !- Construction Name
  ExteriorWall,                           !- Intended Surface Type
  Mass;                                   !- Standards Construction Type

OS:Construction,
  {a7965b67-8db4-4eab-917b-cbabf3be4bf8}, !- Handle
  ASHRAE 189.1-2009 ExtWall Mass ClimateZone alt-res 7, !- Name
  ,                                       !- Surface Rendering Name
  {5c84e940-0ac0-4dea-8765-773485dc199c}, !- Layer 1
  {f84c173f-8311-446d-b5d8-91fa63b0a076}, !- Layer 2
  {5fd1703c-4cef-48f5-a4a7-d8721728c640}, !- Layer 3
  {a91ee89a-5e9b-40e5-bd7b-648fdb540944}; !- Layer 4

OS:StandardsInformation:Construction,
  {5f65fea7-44a2-40c4-acf4-2f0e6cbed6b8}, !- Handle
  {a7965b67-8db4-4eab-917b-cbabf3be4bf8}, !- Construction Name
  ExteriorWall,                           !- Intended Surface Type