
OS:Version,
  {86ef7367-dcba-4548-9980-897a619924f7}, !- Handle
  1.1.2;                                  !- Version Identifier

OS:Schedule:Constant,
  {d089c5f2-300b-4c8e-9734-efc7c8037d71}, !- Handle
  Always On Discrete,                     !- Name
  {77d80150-bb16-4c85-9337-8e718ca8484f}, !- Schedule Type Limits Name
  1;                                      !- Value

OS:ScheduleTypeLimits,
  {77d80150-bb16-4c85-9337-8e718ca8484f}, !- Handle
  Always On Discrete Limits,              !- Name
  0,                                      !- Lower Limit Value {BasedOnField A4}
  1,                                      !- Upper Limit Value {BasedOnField A4}
  Discrete,                               !- Numeric Type
  Availability;                           !- Unit Type

OS:Building,
  {3eb4cd5c-1fcd-4d71-9f8a-ea9404af2997}, ! Handle
  Full Service Restaurant,                ! Name
  ,                                       ! Building Type
  -0,                                     ! North Axis
  ,                                       ! Nominal Floor to Floor Height
  {33ca319c-e59e-4bf8-a456-7c2556ec3dfa}, ! Space Type Name
  {6b61ee37-5b87-42ae-8268-82267e2225a7}, ! Default Construction Set Name
  ;                                       ! Default Schedule Set Name

OS:Construction,
  {a62cb37a-1278-4981-94f8-5b7606eb850e}, ! Handle
  000 AtticRoof ClimateZone 1-8,          ! Name
  {f79bf9e4-3837-40e6-a9d1-4a06adfef876}, ! Surface Rendering Name
  {d243fb1e-6f9d-4fca-96b4-2ad9264f05c0}, ! Layer 1
  {cb10fb9c-8721-4e57-afb3-7b1088c46ee8}; ! Layer 2

OS:Construction,
  {d16dc7ce-6713-4b53-a2ed-e1c0d46094ab}, ! Handle
  000 ExtSlabCarpet 4in ClimateZone 1-8,  ! Name
  {6ff340db-a33a-40be-b942-102afe6dc1c2}, ! Surface Rendering Name
  {41b742b9-048b-4d9f-bf6e-6a8c977aa5ad}, ! Layer 1
  {f125b52b-abc3-499a-9d4f-948d1a5a49e0}; ! Layer 2

OS:Construction,
  {171e0b86-b350-4451-a1e5-043bd72a479b}, ! Handle
  000 ExtSlabCarpet 8in ClimateZone 1-8,  ! Name
  {f461302b-b9c9-4bdf-b954-d86bf86165d4}, ! Surface Rendering Name
  {ddba21ef-ea28-4d12-a41b-f857212d7b11}, ! Layer 1
  {f125b52b-abc3-499a-9d4f-948d1a5a49e0}; ! Layer 2

OS:Construction,
  {5e6a2ee2-fee9-4569-bba7-9813f1b94405}, ! Handle
  000 ExtSlab 4in ClimateZone 1-8,        ! Name
  {c930a288-7a43-4040-9ee4-ee521bac1e5c}, ! Surface Rendering Name
  {41b742b9-048b-4d9f-bf6e-6a8c977aa5ad}; ! Layer 1

OS:Construction,
  {c4f181b2-48df-433e-a965-c16a36f26d2b}, ! Handle
  000 ExtSlab 8in ClimateZone 1-8,        ! Name
  {b538c1bf-8558-4ce0-9a64-a5a560416214}, ! Surface Rendering Name
  {ddba21ef-ea28-4d12-a41b-f857212d7b11}; ! Layer 1

OS:Construction,
  {c08ba6e7-9cf4-434f-a0a4-89325b7a8546}, ! Handle
  000 Exterior Door,                      ! Name
  {519e7b60-8598-4161-b8df-0c860cd54c66}, ! Surface Rendering Name
  {c11c6ba5-8a42-4d2d-8961-e1403ef40a0c}, ! Layer 1
  {5806cdb9-210c-4588-ac4f-8a0fbc04f641}; ! Layer 2

OS:Construction,
  {814f193b-ba68-45eb-b6ac-606274df62ba}, ! Handle
  000 Exterior Floor,                     ! Name
  {01792472-ec2b-4f4b-8146-c6b1036c5d16}, ! Surface Rendering Name
  {b93020eb-d4df-4ec2-965f-7612235afbb5}, ! Layer 1
  {f8f298bc-f2a4-4af9-8b4f-d94b3fc653c5}; ! Layer 2

OS:Construction,
  {0bb73e66-b621-4ca3-8772-9053fc5b85cf}, ! Handle
  000 Exterior Roof,                      ! Name
  {20cc4e8b-f226-4118-9db2-ae8bc1dcbc37}, ! Surface Rendering Name
  {7f6ce6a1-aca6-4633-bef7-014e969148cb}, ! Layer 1
  {30090084-dafb-42f2-8bd6-2084cdc98408}, ! Layer 2
  {0551e296-6831-43b6-963e-4746dec282d9}; ! Layer 3

OS:Construction,
  {2b0450ab-2630-4a94-9194-59732da17b67}, ! Handle
  000 Exterior Wall,                      ! Name
  {1575464e-99b3-4786-a7e3-fa4618f97230}, ! Surface Rendering Name
  {dfa58092-3bbd-4760-a0b6-a035c1ec8d29}, ! Layer 1
  {f8f298bc-f2a4-4af9-8b4f-d94b3fc653c5}, ! Layer 2
  {b93020eb-d4df-4ec2-965f-7612235afbb5}, ! Layer 3
  {5c6b0b7c-b6e3-4172-a043-f7abd7d9fda2}, ! Layer 4
  {3edb0d93-0811-40ad-9457-72da7057153f}; ! Layer 5

OS:Construction,
  {1e4e6922-3dd6-497c-b998-e37a2b5828f1}, ! Handle
  000 Exterior Window,                    ! Name
  {26e65d23-bbe3-40b8-a3fd-9f29621d07b4}, ! Surface Rendering Name
  {0a642c86-0457-46d9-a254-dabf7e71ea2e}, ! Layer 1
  {d54af800-405c-4f36-9160-77b981564c9f}, ! Layer 2
  {0a642c86-0457-46d9-a254-dabf7e71ea2e}; ! Layer 3

OS:Construction,
  {ed131e8e-7ec1-4053-8c25-024a6787447c}, ! Handle
  000 Interior Ceiling,                   ! Name
  {3963a6f9-3034-4147-8851-69b9f5d20f3d}, ! Surface Rendering Name
  {7f6ce6a1-aca6-4633-bef7-014e969148cb}, ! Layer 1
  {30090084-dafb-42f2-8bd6-2084cdc98408}, ! Layer 2
  {0551e296-6831-43b6-963e-4746dec282d9}; ! Layer 3

OS:Construction,
  {8769f3f5-14d5-4654-a4c1-75498268db4d}, ! Handle
  000 Interior Door,                      ! Name
  {e3b9d670-d393-4b0e-a98c-c785d38e8bd6}, ! Surface Rendering Name
  {d91dffe9-5c41-4188-9af6-6ee3666bf52a}; ! Layer 1

OS:Construction,
  {ac72d015-32ba-43dc-911b-179653f2096b}, ! Handle
  000 Interior Floor,                     ! Name
  {c352a551-ef5a-4941-9d33-ee39d5efa9f9}, ! Surface Rendering Name
  {0551e296-6831-43b6-963e-4746dec282d9}, ! Layer 1
  {30090084-dafb-42f2-8bd6-2084cdc98408}, ! Layer 2
  {7f6ce6a1-aca6-4633-bef7-014e969148cb}; ! Layer 3

OS:Construction,
  {bb365850-9f74-4fa8-8828-41cf76f8e8dc}, ! Handle
  000 Interior Partition,                 ! Name
  {e2c18ecf-8e35-4e80-8a5a-d4546d381574}, ! Surface Rendering Name
  {d91dffe9-5c41-4188-9af6-6ee3666bf52a}; ! Layer 1

OS:Construction,
  {6220a848-eead-4e5d-bcf5-686212f15a0b}, ! Handle
  000 Interior Wall,                      ! Name
  {795ee480-b944-4569-b6d9-585cc7d0593d}, ! Surface Rendering Name
  {3edb0d93-0811-40ad-9457-72da7057153f}, ! Layer 1
  {5c6b0b7c-b6e3-4172-a043-f7abd7d9fda2}, ! Layer 2
  {3edb0d93-0811-40ad-9457-72da7057153f}; ! Layer 3

OS:Construction,
  {db8da5fd-5e53-4e73-8185-8912778dedd3}, ! Handle
  000 Interior Window,                    ! Name
  {dba64391-8a69-47d3-9de8-6bf3407d1bca}, ! Surface Rendering Name
  {0a642c86-0457-46d9-a254-dabf7e71ea2e}; ! Layer 1

OS:Construction,
  {bf94171d-1f5c-4a7b-a262-6373e595e5de}, ! Handle
  ASHRAE 189.1-2009 AtticFloor ClimateZone 1-8, ! Name
  {7e346182-59f7-4c7c-9d3e-55d5c1e36982}, ! Surface Rendering Name
  {d86fdbb5-bea4-4d61-bd86-2077cd5a92bf}, ! Layer 1
  {1419caf6-98dd-4ebb-89dc-b83e1a0f21f1}, ! Layer 2
  {d86fdbb5-bea4-4d61-bd86-2077cd5a92bf}; ! Layer 3

OS:Construction,
  {c171872d-6dd7-4528-8442-28d34568e538}, ! Handle
  ASHRAE 189.1-2009 ExtRoof IEAD ClimateZone 1, ! Name
  {1f717b70-96c0-4f36-9f6d-f06aba3af1fb}, ! Surface Rendering Name
  {d243fb1e-6f9d-4fca-96b4-2ad9264f05c0}, ! Layer 1
  {8b7f0ac1-e6e7-4ca1-9cd3-ec5b8b2499bd}, ! Layer 2
  {cb10fb9c-8721-4e57-afb3-7b1088c46ee8}; ! Layer 3

OS:Construction,
  {d13b04b7-7f0c-4b77-b48a-fbc716a01386}, ! Handle
  ASHRAE 189.1-2009 ExtRoof IEAD ClimateZone 2-5, ! Name
  {ca82bc05-823d-48be-bdd1-1ab8fb7303a7}, ! Surface Rendering Name
  {d243fb1e-6f9d-4fca-96b4-2ad9264f05c0}, ! Layer 1
  {475e22c3-76e4-4b47-a090-080a07439c89}, ! Layer 2
  {cb10fb9c-8721-4e57-afb3-7b1088c46ee8}; ! Layer 3

OS:Construction,
  {360db4c3-2482-49e0-a7e9-a6645e68377c}, ! Handle
  ASHRAE 189.1-2009 ExtRoof IEAD ClimateZone 6, ! Name
  {9b7ae641-5f1d-4497-990f-41f16ea1362f}, ! Surface Rendering Name
  {d243fb1e-6f9d-4fca-96b4-2ad9264f05c0}, ! Layer 1
  {d9029599-00ca-4963-b807-642efb22c2dd}, ! Layer 2
  {cb10fb9c-8721-4e57-afb3-7b1088c46ee8}; ! Layer 3

OS:Construction,
  {82064623-c84e-48a2-bb26-464bb52368d0}, ! Handle
  ASHRAE 189.1-2009 ExtRoof IEAD ClimateZone 7-8, ! Name
  {c810e805-7818-40a7-bdbe-e20dccc9ce6c}, ! Surface Rendering Name
  {d243fb1e-6f9d-4fca-96b4-2ad9264f05c0}, ! Layer 1
  {b1a5beec-c401-40f2-84d2-24587aa634e6}, ! Layer 2
  {cb10fb9c-8721-4e57-afb3-7b1088c46ee8}; ! Layer 3

OS:Construction,
  {07a22d6a-7821-4964-9dfa-ca58243158f7}, ! Handle
  ASHRAE 189.1-2009 ExtRoof Metal ClimateZone 1, ! Name
  {5f5fbddd-646d-4b3f-b81d-5f2dc136cacb}, ! Surface Rendering Name
  {83f70d98-9efb-4e56-942d-846a6fab041d}, ! Layer 1
  {ce703719-8a55-4e25-94b6-1c96de39756b}; ! Layer 2

OS:Construction,
  {6a511c5a-d77c-431f-8a02-d09aa94639d8}, ! Handle
  ASHRAE 189.1-2009 ExtRoof Metal ClimateZone 2-5, ! Name
  {003c9958-1d70-43e0-aa18-e696099b6360}, ! Surface Rendering Name
  {83f70d98-9efb-4e56-942d-846a6fab041d}, ! Layer 1
  {d522688e-4715-4c75-8bef-9c3583f1a144}; ! Layer 2

OS:Construction,
  {4dc0ffe8-7039-439f-844b-268ce5a04a2a}, ! Handle
  ASHRAE 189.1-2009 ExtRoof Metal ClimateZone 6, ! Name
  {3c150760-d2b6-4c93-a0fa-0bdabc5dadcd}, ! Surface Rendering Name
  {83f70d98-9efb-4e56-942d-846a6fab041d}, ! Layer 1
  {2536c34f-c183-4875-b98b-e4cdc57fd447}; ! Layer 2

OS:Construction,
  {2851288b-9c84-402d-b070-919af767606b}, ! Handle
  ASHRAE 189.1-2009 ExtRoof Metal ClimateZone 7-8, ! Name
  {8b285c66-8adb-411c-8ef8-a2b4d9525b88}, ! Surface Rendering Name
  {83f70d98-9efb-4e56-942d-846a6fab041d}, ! Layer 1
  {2a946367-407e-4dbd-bb1a-1a6141d59882}; ! Layer 2

OS:Construction,
  {55fbfdc1-6989-45b4-9e00-1f526949339a}, ! Handle
  ASHRAE 189.1-2009 ExtWall Mass ClimateZone 1, ! Name
  {e2e4ef5e-f8a7-44c9-833e-78be9ae0159e}, ! Surface Rendering Name
  {7d94b8db-2557-4e4b-af00-995b56440e84}, ! Layer 1
  {e2e9ec05-115d-4925-a2b8-593736d599d7}, ! Layer 2
  {c9b25036-edb0-4578-a7d3-890b6362182d}, ! Layer 3
  {d86fdbb5-bea4-4d61-bd86-2077cd5a92bf}; ! Layer 4

OS:Construction,
  {5d840fe6-2f42-40d3-a76e-3fd8fb404a55}, ! Handle
  ASHRAE 189.1-2009 ExtWall Mass ClimateZone 2, ! Name
  {f9f6d446-0181-45e6-a240-2d8772172d3f}, ! Surface Rendering Name
  {7d94b8db-2557-4e4b-af00-995b56440e84}, ! Layer 1
  {e2e9ec05-115d-4925-a2b8-593736d599d7}, ! Layer 2
  {be56408c-de94-4d65-b813-8734c33763b2}, ! Layer 3
  {d86fdbb5-bea4-4d61-bd86-2077cd5a92bf}; ! Layer 4

OS:Construction,
  {8da49d0e-8378-49ca-a6c0-4ecf4a94d245}, ! Handle
  ASHRAE 189.1-2009 ExtWall Mass ClimateZone 3, ! Name
  {9ca3a29d-36df-4e5b-b582-ecdb77cb4f87}, ! Surface Rendering Name
  {7d94b8db-2557-4e4b-af00-995b56440e84}, ! Layer 1
  {e2e9ec05-115d-4925-a2b8-593736d599d7}, ! Layer 2
  {34cee64c-7b2f-47c4-9e48-a88a856ba3fe}, ! Layer 3
  {d86fdbb5-bea4-4d61-bd86-2077cd5a92bf}; ! Layer 4

OS:Construction,
  {740d6dc9-18bc-48ee-9cf0-faa2241cd07a}, ! Handle
  ASHRAE 189.1-2009 ExtWall Mass ClimateZone 4, ! Name
  {a163afac-feed-4ae8-bf77-2a96e616cdaa}, ! Surface Rendering Name
  {7d94b8db-2557-4e4b-af00-995b56440e84}, ! Layer 1
  {e2e9ec05-115d-4925-a2b8-593736d599d7}, ! Layer 2
  {9e711c43-6201-4364-a8c1-2fb5faff10ed}, ! Layer 3
  {d86fdbb5-bea4-4d61-bd86-2077cd5a92bf}; ! Layer 4

OS:Construction,
  {baf882ac-2763-49b6-b901-fb207bea8374}, ! Handle
  ASHRAE 189.1-2009 ExtWall Mass ClimateZone 5, ! Name
  {8485f857-88a5-4fa1-a33c-00d94ea4e2a9}, ! Surface Rendering Name
  {7d94b8db-2557-4e4b-af00-995b56440e84}, ! Layer 1
  {e2e9ec05-115d-4925-a2b8-593736d599d7}, ! Layer 2
  {3ecb321c-2f8f-4e0b-a2a6-3cbaaeb24566}, ! Layer 3
  {d86fdbb5-bea4-4d61-bd86-2077cd5a92bf}; ! Layer 4

OS:Construction,
  {6aa23c20-3e5d-41e5-9274-ef94fafd968b}, ! Handle
  ASHRAE 189.1-2009 ExtWall Mass ClimateZone 6, ! Name
  {1890246f-7337-46fc-b523-aedcdcd452a0}, ! Surface Rendering Name
  {7d94b8db-2557-4e4b-af00-995b56440e84}, ! Layer 1
  {e2e9ec05-115d-4925-a2b8-593736d599d7}, ! Layer 2
  {09da11ea-a0ba-440b-b704-b2b6d67ba9fb}, ! Layer 3
  {d86fdbb5-bea4-4d61-bd86-2077cd5a92bf}; ! Layer 4

OS:Construction,
  {34dacc44-3b92-403e-946f-ec4233e8a904}, ! Handle
  ASHRAE 189.1-2009 ExtWall Mass ClimateZone 7-8, ! Name
  {7ce77d61-aa41-41ee-9e59-efa1065a2b36}, ! Surface Rendering Name
  {7d94b8db-2557-4e4b-af00-995b56440e84}, ! Layer 1
  {e2e9ec05-115d-4925-a2b8-593736d599d7}, ! Layer 2
  {a6f5895f-ca50-4919-87a9-1484d1aab2bc}, ! Layer 3
  {d86fdbb5-bea4-4d61-bd86-2077cd5a92bf}; ! Layer 4

OS:Construction,
  {d75a422e-9902-4533-9290-9ff42c631050}, ! Handle
  ASHRAE 189.1-2009 ExtWall Mass ClimateZone alt-res 1, ! Name
  {ab5bf0e1-b62d-43f6-bb81-b2fe67d8d348}, ! Surface Rendering Name
  {7d94b8db-2557-4e4b-af00-995b56440e84}, ! Layer 1
  {e2e9ec05-115d-4925-a2b8-593736d599d7}, ! Layer 2
  {be56408c-de94-4d65-b813-8734c33763b2}, ! Layer 3
  {d86fdbb5-bea4-4d61-bd86-2077cd5a92bf}; ! Layer 4

OS:Construction,
  {a128ba11-1f79-4e86-80fe-88c7bf9ad677}, ! Handle
  ASHRAE 189.1-2009 ExtWall Mass ClimateZone alt-res 2, ! Name
  {440bc6ca-21d5-41d6-bcc9-5a4434fa5291}, ! Surface Rendering Name
  {7d94b8db-2557-4e4b-af00-995b56440e84}, ! Layer 1
  {e2e9ec05-115d-4925-a2b8-593736d599d7}, ! Layer 2
  {34cee64c-7b2f-47c4-9e48-a88a856ba3fe}, ! Layer 3
  {d86fdbb5-bea4-4d61-bd86-2077cd5a92bf}; ! Layer 4

OS:Construction,
  {17cf7d20-fb5f-4876-ace2-295940104aba}, ! Handle
  ASHRAE 189.1-2009 ExtWall Mass ClimateZone alt-res 3, ! Name
  {821b9fb3-cdde-4f07-9209-afcb314aa8c9}, ! Surface Rendering Name
  {7d94b8db-2557-4e4b-af00-995b56440e84}, ! Layer 1
  {e2e9ec05-115d-4925-a2b8-593736d599d7}, ! Layer 2
  {9e711c43-6201-4364-a8c1-2fb5faff10ed}, ! Layer 3
  {d86fdbb5-bea4-4d61-bd86-2077cd5a92bf}; ! Layer 4

OS:Construction,
  {edfc9751-971e-4ce8-bfe1-5539c1493e60}, ! Handle
  ASHRAE 189.1-2009 ExtWall Mass ClimateZone alt-res 4, ! Name
  {2abc22d2-2003-4a9b-b3fb-a068ad9ea99e}, ! Surface Rendering Name
  {7d94b8db-2557-4e4b-af00-995b56440e84}, ! Layer 1
  {e2e9ec05-115d-4925-a2b8-593736d599d7}, ! Layer 2
  {3ecb321c-2f8f-4e0b-a2a6-3cbaaeb24566}, ! Layer 3
  {d86fdbb5-bea4-4d61-bd86-2077cd5a92bf}; ! Layer 4

OS:Construction,
  {5e664fbb-03a4-438a-8325-7528980da26b}, ! Handle
  ASHRAE 189.1-2009 ExtWall Mass ClimateZone alt-res 5, ! Name
  {cb726d1d-7524-4975-8606-0a03e774166d}, ! Surface Rendering Name
  {7d94b8db-2557-4e4b-af00-995b56440e84}, ! Layer 1
  {e2e9ec05-115d-4925-a2b8-593736d599d7}, ! Layer 2
  {09da11ea-a0ba-440b-b704-b2b6d67ba9fb}, ! Layer 3
  {d86fdbb5-bea4-4d61-bd86-2077cd5a92bf}; ! Layer 4

OS:Construction,
  {cfa6626a-ab7a-47e5-aff6-6263654c0a84}, ! Handle
  ASHRAE 189.1-2009 ExtWall Mass ClimateZone alt-res 6, ! Name
  {c89ef651-8483-49d9-af6e-076ef6228605}, ! Surface Rendering Name
  {7d94b8db-2557-4e4b-af00-995b56440e84}, ! Layer 1
  {e2e9ec05-115d-4925-a2b8-593736d599d7}, ! Layer 2
  {a6f5895f-ca50-4919-87a9-1484d1aab2bc}, ! Layer 3
  {d86fdbb5-bea4-4d61-bd86-2077cd5a92bf}; ! Layer 4

OS:Construction,
  {a9062187-ab32-4c69-afa4-ffc2d7964277}, ! Handle
  ASHRAE 189.1-2009 ExtWall Mass ClimateZone alt-res 7, ! Name
  {ad330021-848f-401c-a424-5393671c8e8a}, ! Surface Rendering Name
  {7d94b8db-2557-4e4b-af00-995b56440e84}, ! Layer 1
  {e2e9ec05-115d-4925-a2b8-593736d599d7}, ! Layer 2
  {a6f5895f-ca50-4919-87a9-1484d1aab2bc}, ! Layer 3
  {d86fdbb5-bea4-4d61-bd86-2077cd5a92bf}; ! Layer 4

OS:Construction,
  {3d47f482-9b1f-4015-ae30-3f78e7ca3008}, ! Handle
  ASHRAE 189.1-2009 ExtWall Mass ClimateZone alt-res 8, ! Name
  {068d92d1-ea9e-40d0-b741-46b94fd6f7b8}, ! Surface Rendering Name
  {7d94b8db-2557-4e4b-af00-995b56440e84}, ! Layer 1
  {e2e9ec05-115d-4925-a2b8-593736d599d7}, ! Layer 2
  {2bef90d3-12f9-49aa-a23c-74e6c4c9e881}, ! Layer 3
  {d86fdbb5-bea4-4d61-bd86-2077cd5a92bf}; ! Layer 4

OS:Construction,
  {bf4653e0-d242-419d-a9a4-44550b368601}, ! Handle
  ASHRAE 189.1-2009 ExtWall Metal ClimateZone 1-3, ! Name
  {49abbcab-be01-4504-8495-26c5cd8aa3f9}, ! Surface Rendering Name
  {0d7ae879-bf93-4991-b6a1-615c3c751f2a}, ! Layer 1
  {1016352d-03e0-4ca2-8232-c28793bcfcca}, ! Layer 2
  {d86fdbb5-bea4-4d61-bd86-2077cd5a92bf}; ! Layer 3

OS:Construction,
  {9fa3f627-197c-489f-821f-49fdd21158cb}, ! Handle
  ASHRAE 189.1-2009 ExtWall Metal ClimateZone 4-8, ! Name
  {c69ef6fe-2a9d-491a-a209-7cf7f71b56ef}, ! Surface Rendering Name
  {0d7ae879-bf93-4991-b6a1-615c3c751f2a}, ! Layer 1
  {83ba7fe4-cbe8-4f74-b868-2122c01b3ddc}, ! Layer 2
  {d86fdbb5-bea4-4d61-bd86-2077cd5a92bf}; ! Layer 3

OS:Construction,
  {6784903b-535e-4447-9464-67f85118a1fd}, ! Handle
  ASHRAE 189.1-2009 ExtWall SteelFrame ClimateZone 1-3, ! Name
  {fa413e95-b55b-4fc2-ab52-e55bad45f5dc}, ! Surface Rendering Name
  {4499244e-3dde-413b-b26a-dce6dfdb77d4}, ! Layer 1
  {f2d85496-8f7f-4979-967d-2a7f9919f16f}, ! Layer 2
  {d86fdbb5-bea4-4d61-bd86-2077cd5a92bf}; ! Layer 3

OS:Construction,
  {b6a06fc7-f008-47a3-bc63-05e3047362fd}, ! Handle
  ASHRAE 189.1-2009 ExtWall SteelFrame ClimateZone 4-8, ! Name
  {1e9dc49f-24ca-4312-b84e-6ce6460c37be}, ! Surface Rendering Name
  {4499244e-3dde-413b-b26a-dce6dfdb77d4}, ! Layer 1
  {784e033c-2f2e-418f-9797-f9fb623a69ba}, ! Layer 2
  {d86fdbb5-bea4-4d61-bd86-2077cd5a92bf}; ! Layer 3

OS:Construction,
  {c2516a9b-7e37-45df-8b7b-a719d9552b86}, ! Handle
  ASHRAE 189.1-2009 ExtWall WoodFrame ClimateZone 1-4, ! Name
  {9d179444-092a-4816-8960-522787ece0c2}, ! Surface Rendering Name
  {1005f9e7-b78a-4ddf-b1ee-806557557502}, ! Layer 1
  {49d0c010-080e-4dbf-adff-73d2989d3f1d}, ! Layer 2
  {d86fdbb5-bea4-4d61-bd86-2077cd5a92bf}; ! Layer 3

OS:Construction,
  {f815f887-1ea9-46cd-83a6-ba75841892f1}, ! Handle
  ASHRAE 189.1-2009 ExtWall WoodFrame ClimateZone 5, ! Name
  {5bb8ed8c-ffa4-4aeb-96fe-2dafae597fa9}, ! Surface Rendering Name
  {1005f9e7-b78a-4ddf-b1ee-806557557502}, ! Layer 1
  {30f16118-ea86-4188-91c4-41d9723346e9}, ! Layer 2
  {d86fdbb5-bea4-4d61-bd86-2077cd5a92bf}; ! Layer 3

OS:Construction,
  {7e7c98a8-789b-4bc7-aedf-7390059c6d1a}, ! Handle
  ASHRAE 189.1-2009 ExtWall WoodFrame ClimateZone 6-8, ! Name
  {163e83aa-6093-4544-ba14-8246d620a7a1}, ! Surface Rendering Name
  {1005f9e7-b78a-4ddf-b1ee-806557557502}, ! Layer 1
  {f33c8b79-359e-4b82-9b5c-7398d11978ca}, ! Layer 2
  {d86fdbb5-bea4-4d61-bd86-2077cd5a92bf}; ! Layer 3

OS:Construction,
  {306de101-f229-4634-8276-eef0cf8425cf}, ! Handle
  ASHRAE 189.1-2009 ExtWindow ClimateZone 1, ! Name
  {81d77086-bfc2-4519-ae02-c3153d8a5b9b}, ! Surface Rendering Name
  {46cbcc53-432b-47b0-86af-70d93b239e9e}; ! Layer 1

OS:Construction,
  {c0998c33-80e8-44b5-9371-f4a55af0b620}, ! Handle
  ASHRAE 189.1-2009 ExtWindow ClimateZone 2, ! Name
  {e849c4f3-271c-4b10-b000-c0d588032a7f}, ! Surface Rendering Name
  {ffb6461c-a5ab-4f8c-9b09-372d60bab515}; ! Layer 1

OS:Construction,
  {ce87dc3c-e4e5-4831-91f0-9510d39f30e6}, ! Handle
  ASHRAE 189.1-2009 ExtWindow ClimateZone 3, ! Name
  {2e183df7-80de-44b9-95f0-213a58f815bc}, ! Surface Rendering Name
  {13681ffa-9c3c-4f36-ae18-82bd750ce9d3}; ! Layer 1

OS:Construction,
  {de60c283-d5ce-4342-8fc6-8fe110b1b7cc}, ! Handle
  ASHRAE 189.1-2009 ExtWindow ClimateZone 4-5, ! Name
  {ee949dec-f189-4eff-bfae-b7b4a3dde77c}, ! Surface Rendering Name
  {c7de6726-3a02-4210-8522-ba83e4e78d0e}; ! Layer 1

OS:Construction,
  {38986ba6-e66b-4aae-ac32-8097e2b52b89}, ! Handle
  ASHRAE 189.1-2009 ExtWindow ClimateZone 6, ! Name
  {3f7d9906-924e-4783-b786-b1cb17602727}, ! Surface Rendering Name
  {0f97c193-76d5-4478-90c9-70a1b87abeaf}; ! Layer 1

OS:Construction,
  {6a52fc84-6e51-4e37-8980-4ee93817cc30}, ! Handle
  ASHRAE 189.1-2009 ExtWindow ClimateZone 7-8, ! Name
  {f4757403-4855-4df5-bfa8-b623d3d753b8}, ! Surface Rendering Name
  {d9818e3b-2723-406b-9fe8-91760a141475}; ! Layer 1

OS:Construction,
  {c58139db-adf0-445f-99c3-4f7e33113b51}, ! Handle
  ASHRAE 189.1-2009 ExtWindow ClimateZone alt-res 4-5, ! Name
  {a34e27ff-8ef8-4217-9638-667a2a27a1fe}, ! Surface Rendering Name
  {0f97c193-76d5-4478-90c9-70a1b87abeaf}; ! Layer 1

OS:Construction,
  {769254e8-4265-42cc-af88-b428b8269107}, ! Handle
  ASHRAE 90.1-2004 AtticFloor ClimateZone 1-5, ! Name
  {ac1a1fe6-e998-459b-9ef7-c66b01d06b69}, ! Surface Rendering Name
  {d86fdbb5-bea4-4d61-bd86-2077cd5a92bf}, ! Layer 1
  {343683d6-3ef4-41dd-ab90-c6677b4dde3f}, ! Layer 2
  {d86fdbb5-bea4-4d61-bd86-2077cd5a92bf}; ! Layer 3

OS:Construction,
  {726bc017-0815-4233-9cc1-21ee733a588d}, ! Handle
  ASHRAE 90.1-2004 AtticFloor ClimateZone 6-8, ! Name
  {8df0f8ee-42f0-436e-ae9b-234c0b00edc6}, ! Surface Rendering Name
  {d86fdbb5-bea4-4d61-bd86-2077cd5a92bf}, ! Layer 1
  {39356703-3d8e-4142-b6f5-8c654db4514c}, ! Layer 2
  {d86fdbb5-bea4-4d61-bd86-2077cd5a92bf}; ! Layer 3

OS:Construction,
  {428a6e7d-f8f5-4e36-8609-942f7339f27f}, ! Handle
  ASHRAE 90.1-2004 ExtRoof IEAD ClimateZone 1-4, ! Name
  {bd9bfde2-c5a0-4b97-a3a2-0ec28b8e9d14}, ! Surface Rendering Name
  {d243fb1e-6f9d-4fca-96b4-2ad9264f05c0}, ! Layer 1
  {bcb83c15-a9e7-495a-9d2c-5860ba00366a}, ! Layer 2
  {cb10fb9c-8721-4e57-afb3-7b1088c46ee8}; ! Layer 3

OS:Construction,
  {e46a6087-2af4-4ac3-a4c9-79723b30fca3}, ! Handle
  ASHRAE 90.1-2004 ExtRoof IEAD ClimateZone 5-6, ! Name
  {00b1b01d-3e51-4707-afdb-fcad987cd176}, ! Surface Rendering Name
  {d243fb1e-6f9d-4fca-96b4-2ad9264f05c0}, ! Layer 1
  {a12a877d-4444-405b-96a3-d9195a940b89}, ! Layer 2
  {cb10fb9c-8721-4e57-afb3-7b1088c46ee8}; ! Layer 3

OS:Construction,
  {eff18b41-dd38-49ef-907b-87e93385ed2f}, ! Handle
  ASHRAE 90.1-2004 ExtRoof IEAD ClimateZone 7, ! Name
  {f197aae7-40e1-49dd-9bc0-784579782eef}, ! Surface Rendering Name
  {d243fb1e-6f9d-4fca-96b4-2ad9264f05c0}, ! Layer 1
  {bcb83c15-a9e7-495a-9d2c-5860ba00366a}, ! Layer 2
  {cb10fb9c-8721-4e57-afb3-7b1088c46ee8}; ! Layer 3

OS:Construction,
  {f6c1b3c4-4d4e-4cd4-9927-a57da34c329e}, ! Handle
  ASHRAE 90.1-2004 ExtRoof IEAD ClimateZone 8, ! Name
  {777df0f6-e2c1-465c-a0e1-b498acba3e6f}, ! Surface Rendering Name
  {d243fb1e-6f9d-4fca-96b4-2ad9264f05c0}, ! Layer 1
  {2851f32d-6d23-46ad-a65e-9b5ac1d9d381}, ! Layer 2
  {cb10fb9c-8721-4e57-afb3-7b1088c46ee8}; ! Layer 3

OS:Construction,
  {330ab4d1-d954-4cd3-8faf-3bf3b2c6be80}, ! Handle
  ASHRAE 90.1-2004 ExtRoof Metal ClimateZone 1, ! Name
  {5b66d698-a6c5-472a-8089-730adb17c65b}, ! Surface Rendering Name
  {83f70d98-9efb-4e56-942d-846a6fab041d}; ! Layer 1

OS:Construction,
  {409bd887-87ad-46d7-9ad9-8f8c38e9d21f}, ! Handle
  ASHRAE 90.1-2004 ExtRoof Metal ClimateZone 2, ! Name
  {18f372cd-4dd0-4cfa-aa90-25be523273e4}, ! Surface Rendering Name
  {83f70d98-9efb-4e56-942d-846a6fab041d}, ! Layer 1
  {85afadfc-9e50-4c25-a0dd-27ef94f9006e}; ! Layer 2

OS:Construction,
  {a9da695e-2797-4257-a6d6-dc00b6ddda15}, ! Handle
  ASHRAE 90.1-2004 ExtRoof Metal ClimateZone 3-4, ! Name
  {e0fd3056-481c-4b39-a468-d31373a1939d}, ! Surface Rendering Name
  {83f70d98-9efb-4e56-942d-846a6fab041d}, ! Layer 1
  {bd48a78c-9925-45c9-941a-d4a8e4aebebb}; ! Layer 2

OS:Construction,
  {ed8aa7dc-190e-4bac-8d4d-802f6ceec859}, ! Handle
  ASHRAE 90.1-2004 ExtRoof Metal ClimateZone 5-6, ! Name
  {832d1452-725f-43f9-9452-8cb28dc6a7a2}, ! Surface Rendering Name
  {83f70d98-9efb-4e56-942d-846a6fab041d}, ! Layer 1
  {525fe6e1-717e-40b3-ab11-aa5aa0989fa2}; ! Layer 2

OS:Construction,
  {dc953ae3-15fc-44b8-b50b-e854b8587705}, ! Handle
  ASHRAE 90.1-2004 ExtRoof Metal ClimateZone 7, ! Name
  {5d7a0640-cf70-45c1-8376-d6b6a1587a6c}, ! Surface Rendering Name
  {83f70d98-9efb-4e56-942d-846a6fab041d}, ! Layer 1
  {bd48a78c-9925-45c9-941a-d4a8e4aebebb}; ! Layer 2

OS:Construction,
  {aff8ee9a-66c3-44c7-8fe8-a531806723c9}, ! Handle
  ASHRAE 90.1-2004 ExtRoof Metal ClimateZone 8, ! Name
  {b7306103-eace-4c96-b89e-02417782932a}, ! Surface Rendering Name
  {83f70d98-9efb-4e56-942d-846a6fab041d}, ! Layer 1
  {d7890734-ab8c-4310-909d-30c54fcc5559}; ! Layer 2

OS:Construction,
  {4c2c66ce-ced1-46c7-9127-a2aab8ad7b0f}, ! Handle
  ASHRAE 90.1-2004 ExtWall Mass ClimateZone 1-2, ! Name
  {abb5fae3-45b7-41b1-b12b-6f44946e5d63}, ! Surface Rendering Name
  {7d94b8db-2557-4e4b-af00-995b56440e84}, ! Layer 1
  {586134f8-8dce-4ee4-88e3-4b1a707a8c4b}, ! Layer 2
  {d86fdbb5-bea4-4d61-bd86-2077cd5a92bf}; ! Layer 3

OS:Construction,
  {73c503df-fa2b-4f70-9a47-1d4815467f49}, ! Handle
  ASHRAE 90.1-2004 ExtWall Mass ClimateZone 3-4, ! Name
  {2b15e452-fe5d-4637-8bf1-813891482e0c}, ! Surface Rendering Name
  {7d94b8db-2557-4e4b-af00-995b56440e84}, ! Layer 1
  {586134f8-8dce-4ee4-88e3-4b1a707a8c4b}, ! Layer 2
  {9def846b-b5da-4d7f-80e8-ffa79eaea034}, ! Layer 3
  {d86fdbb5-bea4-4d61-bd86-2077cd5a92bf}; ! Layer 4

OS:Construction,
  {3d52d6e5-5775-4f84-b9e2-eadecafdbf92}, ! Handle
  ASHRAE 90.1-2004 ExtWall Mass ClimateZone 5, ! Name
  {e99b00b6-6744-4c26-abaf-52a630138391}, ! Surface Rendering Name
  {7d94b8db-2557-4e4b-af00-995b56440e84}, ! Layer 1
  {586134f8-8dce-4ee4-88e3-4b1a707a8c4b}, ! Layer 2
  {8d4cb3b1-c6f7-4f7b-83a2-e8f418fb1165}, ! Layer 3
  {d86fdbb5-bea4-4d61-bd86-2077cd5a92bf}; ! Layer 4

OS:Construction,
  {a895241c-ef3d-4997-b3aa-96c4d487d3cc}, ! Handle
  ASHRAE 90.1-2004 ExtWall Mass ClimateZone 6, ! Name
  {86a31261-865e-4ee0-82e7-a02d04712ae0}, ! Surface Rendering Name
  {7d94b8db-2557-4e4b-af00-995b56440e84}, ! Layer 1
  {586134f8-8dce-4ee4-88e3-4b1a707a8c4b}, ! Layer 2
  {7d953e93-5163-4944-b04c-7d5f0841fa85}, ! Layer 3
  {d86fdbb5-bea4-4d61-bd86-2077cd5a92bf}; ! Layer 4

OS:Construction,
  {11d8bb84-0995-4bb6-a8d5-7db775a61c1a}, ! Handle
  ASHRAE 90.1-2004 ExtWall Mass ClimateZone 7, ! Name
  {6ac964c3-9b2c-42ca-a0a7-0aff48c9d518}, ! Surface Rendering Name
  {7d94b8db-2557-4e4b-af00-995b56440e84}, ! Layer 1
  {586134f8-8dce-4ee4-88e3-4b1a707a8c4b}, ! Layer 2
  {7feeec0d-7797-480d-aa3d-0226bc730260}, ! Layer 3
  {d86fdbb5-bea4-4d61-bd86-2077cd5a92bf}; ! Layer 4

OS:Construction,
  {b570f34d-33f6-43b5-836c-1a17290c6a4d}, ! Handle
  ASHRAE 90.1-2004 ExtWall Mass ClimateZone 8, ! Name
  {0343ed49-343c-40d7-b74f-c4abcc05f008}, ! Surface Rendering Name
  {7d94b8db-2557-4e4b-af00-995b56440e84}, ! Layer 1
  {586134f8-8dce-4ee4-88e3-4b1a707a8c4b}, ! Layer 2
  {eda9ed9e-73b9-4920-be59-a6f6abe7f6cf}, ! Layer 3
  {d86fdbb5-bea4-4d61-bd86-2077cd5a92bf}; ! Layer 4

OS:Construction,
  {a3a52452-ac82-4ffc-929b-b2c3efcba8e1}, ! Handle
  ASHRAE 90.1-2004 ExtWall Mass ClimateZone alt-res 1-2, ! Name
  {3b061135-f669-4b9b-8547-ce8d854e0713}, ! Surface Rendering Name
  {7d94b8db-2557-4e4b-af00-995b56440e84}, ! Layer 1
  {586134f8-8dce-4ee4-88e3-4b1a707a8c4b}, ! Layer 2
  {9def846b-b5da-4d7f-80e8-ffa79eaea034}, ! Layer 3
  {d86fdbb5-bea4-4d61-bd86-2077cd5a92bf}; ! Layer 4

OS:Construction,
  {a0122497-5322-4690-9869-5412587db8ae}, ! Handle
  ASHRAE 90.1-2004 ExtWall Mass ClimateZone alt-res 3, ! Name
  {b8e3794c-abfd-459f-a114-4d4311c4b6db}, ! Surface Rendering Name
  {7d94b8db-2557-4e4b-af00-995b56440e84}, ! Layer 1
  {586134f8-8dce-4ee4-88e3-4b1a707a8c4b}, ! Layer 2
  {8d4cb3b1-c6f7-4f7b-83a2-e8f418fb1165}, ! Layer 3
  {d86fdbb5-bea4-4d61-bd86-2077cd5a92bf}; ! Layer 4

OS:Construction,
  {31d60a24-d1cf-40bb-9481-e4cf98d896b3}, ! Handle
  ASHRAE 90.1-2004 ExtWall Mass ClimateZone alt-res 4, ! Name
  {97e013e9-6ad6-4e7d-b79a-82cfc58add75}, ! Surface Rendering Name
  {7d94b8db-2557-4e4b-af00-995b56440e84}, ! Layer 1
  {586134f8-8dce-4ee4-88e3-4b1a707a8c4b}, ! Layer 2
  {7d953e93-5163-4944-b04c-7d5f0841fa85}, ! Layer 3
  {d86fdbb5-bea4-4d61-bd86-2077cd5a92bf}; ! Layer 4

OS:Construction,
  {3bbdb768-4fc7-4a77-8af7-c2ebc0f0e928}, ! Handle
  ASHRAE 90.1-2004 ExtWall Mass ClimateZone alt-res 5-6, ! Name
  {f5ada22b-8fa0-43fd-9b4e-e50a9e7bf8a9}, ! Surface Rendering Name
  {7d94b8db-2557-4e4b-af00-995b56440e84}, ! Layer 1
  {586134f8-8dce-4ee4-88e3-4b1a707a8c4b}, ! Layer 2
  {7feeec0d-7797-480d-aa3d-0226bc730260}, ! Layer 3
  {d86fdbb5-bea4-4d61-bd86-2077cd5a92bf}; ! Layer 4

OS:Construction,
  {cf82007a-9c67-4d9c-b5c0-84cbb7d70730}, ! Handle
  ASHRAE 90.1-2004 ExtWall Mass ClimateZone alt-res 7, ! Name
  {6275d73d-6802-4696-bf26-acca18f14acb}, ! Surface Rendering Name
  {7d94b8db-2557-4e4b-af00-995b56440e84}, ! Layer 1
  {586134f8-8dce-4ee4-88e3-4b1a707a8c4b}, ! Layer 2
  {eda9ed9e-73b9-4920-be59-a6f6abe7f6cf}, ! Layer 3
  {d86fdbb5-bea4-4d61-bd86-2077cd5a92bf}; ! Layer 4

OS:Construction,
  {cdd3082f-d14e-4544-9028-4861a51c9da4}, ! Handle
  ASHRAE 90.1-2004 ExtWall Mass ClimateZone alt-res 8, ! Name
  {09947f7f-e4b2-4dac-9ef6-0048708ffdea}, ! Surface Rendering Name
  {7d94b8db-2557-4e4b-af00-995b56440e84}, ! Layer 1
  {586134f8-8dce-4ee4-88e3-4b1a707a8c4b}, ! Layer 2
  {c3809b18-8449-4dc7-b4ba-7117786ad0d3}, ! Layer 3
  {d86fdbb5-bea4-4d61-bd86-2077cd5a92bf}; ! Layer 4

OS:Construction,
  {76642d30-0848-4ff8-9397-41e9b21be106}, ! Handle
  ASHRAE 90.1-2004 ExtWall Metal ClimateZone 1, ! Name
  {bc4a7964-1218-4294-ada8-118f00ff4320}, ! Surface Rendering Name
  {0d7ae879-bf93-4991-b6a1-615c3c751f2a}, ! Layer 1
  {d86fdbb5-bea4-4d61-bd86-2077cd5a92bf}; ! Layer 2

OS:Construction,
  {74954851-03e7-4344-b393-1ffd7733bd4c}, ! Handle
  ASHRAE 90.1-2004 ExtWall Metal ClimateZone 2-3, ! Name
  {f99c5402-9153-43a6-a02e-e2a3b9a93ecc}, ! Surface Rendering Name
  {0d7ae879-bf93-4991-b6a1-615c3c751f2a}, ! Layer 1
  {da453ec7-569e-418d-9b5e-8f644c6a6f01}, ! Layer 2
  {d86fdbb5-bea4-4d61-bd86-2077cd5a92bf}; ! Layer 3

OS:Construction,
  {f06649ee-8b23-450b-937c-bc61560cb299}, ! Handle
  ASHRAE 90.1-2004 ExtWall Metal ClimateZone 4, ! Name
  {d81d335f-f125-4f6e-b747-845bc810048f}, ! Surface Rendering Name
  {0d7ae879-bf93-4991-b6a1-615c3c751f2a}, ! Layer 1
  {f64e82c2-b3fd-4d72-8b28-430fbdfa32b5}, ! Layer 2
  {d86fdbb5-bea4-4d61-bd86-2077cd5a92bf}; ! Layer 3

OS:Construction,
  {1fc80b14-3c04-44bc-bb9d-72e9f43bbce9}, ! Handle
  ASHRAE 90.1-2004 ExtWall Metal ClimateZone 5, ! Name
  {2020c717-7499-49db-b39a-3487b67c91b5}, ! Surface Rendering Name
  {0d7ae879-bf93-4991-b6a1-615c3c751f2a}, ! Layer 1
  {aa4936eb-624b-4071-8552-9b054c43358b}, ! Layer 2
  {d86fdbb5-bea4-4d61-bd86-2077cd5a92bf}; ! Layer 3

OS:Construction,
  {7c87325e-b0d6-4072-8e30-baee489c68d4}, ! Handle
  ASHRAE 90.1-2004 ExtWall Metal ClimateZone 6-8, ! Name
  {f6cb8e58-6622-4517-885a-19344e3e871f}, ! Surface Rendering Name