
OS:Version,
  {a76aa8dd-2700-4bca-88c9-e6aa5c0a14f6}, !- Handle
  1.3.3;                                  !- Version Identifier

OS:Construction,
  {cd94d610-bd2f-4041-8f99-b5c8af22b751}, !- Handle
  ASHRAE 189.1-2009 AtticFloor ClimateZone 1-8, !- Name
  ,                                       !- Surface Rendering Name
  {82f59106-8aff-4a73-be13-1affdeed5d2e}, !- Layer 1
  {62907c00-e19c-415d-a929-c054f645e67c}, !- Layer 2
  {82f59106-8aff-4a73-be13-1affdeed5d2e}; !- Layer 3

OS:StandardsInformation:Construction,
  {e16e3d54-b952-4327-a0e4-79a8e2981b20}, !- Handle
  {cd94d610-bd2f-4041-8f99-b5c8af22b751}, !- Construction Name
  AtticFloor,                             !- Intended Surface Type
  WoodFramed;                             !- Standards Construction Type

OS:Material,
  {82f59106-8aff-4a73-be13-1affdeed5d2e}, !- Handle
  1/2IN Gypsum,                           !- Name
  Smooth,                                 !- Roughness
  0.0127,                                 !- Thickness {m}
  0.16,                                   !- Conductivity {W/m-K}
  784.9,                                  !- Density {kg/m3}
  830.000000000001,                       !- Specific Heat {J/kg-K}
  0.9,                                    !- Thermal Absorptance
  0.92,                                   !- Solar Absorptance
  0.92;                                   !- Visible Absorptance

OS:Material,
  {62907c00-e19c-415d-a929-c054f645e67c}, !- Handle
  AtticFloor Insulation,                  !- Name
  MediumRough,                            !- Roughness
  0.2379,                                 !- Thickness {m}
  0.049,                                  !- Conductivity {W/m-K}
  265,                                    !- Density {kg/m3}
  836.800000000001,                       !- Specific Heat {J/kg-K}
  0.9,                                    !- Thermal Absorptance
  0.7,                                    !- Solar Absorptance
  0.7;                                    !- Visible Absorptance

OS:Construction,
  {6c7e1b90-b19a-48c6-8fa2-d8699a1de56e}, !- Handle
  ASHRAE 189.1-2009 ExtRoof IEAD ClimateZone 1, !- Name
  ,                                       !- Surface Rendering Name
  {4f1decfa-5599-49d1-9c68-c57faca1dd17}, !- Layer 1
  {16aba7f2-766e-4434-88f7-1f74429f82de}, !- Layer 2
  {d72baa93-24d0-4cb2-82fc-3ce453433f1d}; !- Layer 3

OS:StandardsInformation:Construction,
  {69bcde14-6cbd-4472-8929-2fd96e33d76b}, !- Handle
  {6c7e1b90-b19a-48c6-8fa2-d8699a1de56e}, !- Construction Name
  ExteriorRoof,                           !- Intended Surface Type
  IEAD;                                   !- Standards Construction Type

OS:Material,
  {4f1decfa-5599-49d1-9c68-c57faca1dd17}, !- Handle
  Roof Membrane,                          !- Name
  VeryRough,                              !- Roughness
  0.0095,                                 !- Thickness {m}
  0.16,                                   !- Conductivity {W/m-K}
  1121.29,                                !- Density {kg/m3}
  1460,                                   !- Specific Heat {J/kg-K}
  0.9,                                    !- Thermal Absorptance
  0.7,                                    !- Solar Absorptance
  0.7;                                    !- Visible Absorptance

OS:Material,
  {16aba7f2-766e-4434-88f7-1f74429f82de}, !- Handle
  Roof Insulation [18],                   !- Name
  MediumRough,                            !- Roughness
  0.1693,                                 !- Thickness {m}
  0.049,                                  !- Conductivity {W/m-K}
  265,                                    !- Density {kg/m3}
  836.800000000001,                       !- Specific Heat {J/kg-K}
  0.9,                                    !- Thermal Absorptance
  0.7,                                    !- Solar Absorptance
  0.7;                                    !- Visible Absorptance

OS:Material,
  {d72baa93-24d0-4cb2-82fc-3ce453433f1d}, !- Handle
  Metal Decking,                          !- Name
  MediumSmooth,                           !- Roughness
  0.0015,                                 !- Thickness {m}
  45.006,                                 !- Conductivity {W/m-K}
  7680,                                   !- Density {kg/m3}
  418.4,                                  !- Specific Heat {J/kg-K}
  0.9,                                    !- Thermal Absorptance
  0.7,                                    !- Solar Absorptance
  0.3;                                    !- Visible Absorptance

OS:Construction,
  {03b2ba81-67ce-4687-ad3d-95d8cfe6cffc}, !- Handle
  ASHRAE 189.1-2009 ExtRoof IEAD ClimateZone 2-5, !- Name
  ,                                       !- Surface Rendering Name
  {4f1decfa-5599-49d1-9c68-c57faca1dd17}, !- Layer 1
  {8ef06b2c-0a7d-4668-990a-159d456896b9}, !- Layer 2
  {d72baa93-24d0-4cb2-82fc-3ce453433f1d}; !- Layer 3

OS:StandardsInformation:Construction,
  {0cf347ae-5db2-4a51-9fec-1b3e0d9e2588}, !- Handle
  {03b2ba81-67ce-4687-ad3d-95d8cfe6cffc}, !- Construction Name
  ExteriorRoof,                           !- Intended Surface Type
  IEAD;                                   !- Standards Construction Type

OS:Material,
  {8ef06b2c-0a7d-4668-990a-159d456896b9}, !- Handle
  Roof Insulation [21],                   !- Name
  MediumRough,                            !- Roughness
  0.2105,                                 !- Thickness {m}
  0.049,                                  !- Conductivity {W/m-K}
  265,                                    !- Density {kg/m3}
  836.800000000001,                       !- Specific Heat {J/kg-K}
  0.9,                                    !- Thermal Absorptance
  0.7,                                    !- Solar Absorptance
  0.7;                                    !- Visible Absorptance

OS:Construction,
  {f54187e5-f75f-4da3-aabd-5b004217a52f}, !- Handle
  ASHRAE 189.1-2009 ExtRoof IEAD ClimateZone 6, !- Name
  ,                                       !- Surface Rendering Name
  {4f1decfa-5599-49d1-9c68-c57faca1dd17}, !- Layer 1
  {ce40f418-7dbb-48a2-a95a-386624200caa}, !- Layer 2
  {d72baa93-24d0-4cb2-82fc-3ce453433f1d}; !- Layer 3

OS:StandardsInformation:Construction,
  {22a8039b-08ba-4a51-ae09-9c0ed96fd4d5}, !- Handle
  {f54187e5-f75f-4da3-aabd-5b004217a52f}, !- Construction Name
  ExteriorRoof,                           !- Intended Surface Type
  IEAD;                                   !- Standards Construction Type

OS:Material,
  {ce40f418-7dbb-48a2-a95a-386624200caa}, !- Handle
  Roof Insulation [24],                   !- Name
  MediumRough,                            !- Roughness
  0.260100000000001,                      !- Thickness {m}
  0.049,                                  !- Conductivity {W/m-K}
  265,                                    !- Density {kg/m3}
  836.800000000001,                       !- Specific Heat {J/kg-K}
  0.9,                                    !- Thermal Absorptance
  0.7,                                    !- Solar Absorptance
  0.7;                                    !- Visible Absorptance

OS:Construction,
  {feb8c0a0-0a6b-4a60-91af-0ec6b7f78915}, !- Handle
  ASHRAE 189.1-2009 ExtRoof IEAD ClimateZone 7-8, !- Name
  ,                                       !- Surface Rendering Name
  {4f1decfa-5599-49d1-9c68-c57faca1dd17}, !- Layer 1
  {1e68b137-75dd-4eb7-857a-ad33d274d0b0}, !- Layer 2
  {d72baa93-24d0-4cb2-82fc-3ce453433f1d}; !- Layer 3

OS:StandardsInformation:Construction,
  {354e4822-822d-416f-a197-ca2ea17b9f35}, !- Handle
  {feb8c0a0-0a6b-4a60-91af-0ec6b7f78915}, !- Construction Name
  ExteriorRoof,                           !- Intended Surface Type
  IEAD;                                   !- Standards Construction Type

OS:Material,
  {1e68b137-75dd-4eb7-857a-ad33d274d0b0}, !- Handle
  Roof Insulation [26],                   !- Name
  MediumRough,                            !- Roughness
  0.2941,                                 !- Thickness {m}
  0.049,                                  !- Conductivity {W/m-K}
  265,                                    !- Density {kg/m3}
  836.800000000001,                       !- Specific Heat {J/kg-K}
  0.9,                                    !- Thermal Absorptance
  0.7,                                    !- Solar Absorptance
  0.7;                                    !- Visible Absorptance

OS:Construction,
  {2fadfad2-67f0-4a12-8437-0a7f66efcb12}, !- Handle
  ASHRAE 189.1-2009 ExtRoof Metal ClimateZone 1, !- Name
  ,                                       !- Surface Rendering Name
  {cf27bcec-ae64-4ea7-b04e-95d68a7554bf}, !- Layer 1
  {e1a7aa2e-d840-4afa-8e3e-55a509ca6b4e}; !- Layer 2

OS:StandardsInformation:Construction,
  {fc643970-8202-4723-9b5c-86437f1c8467}, !- Handle
  {2fadfad2-67f0-4a12-8437-0a7f66efcb12}, !- Construction Name
  ExteriorRoof,                           !- Intended Surface Type
  Metal;                                  !- Standards Construction Type

OS:Material,
  {cf27bcec-ae64-4ea7-b04e-95d68a7554bf}, !- Handle
  Metal Roofing,                          !- Name
  MediumSmooth,                           !- Roughness
  0.0015,                                 !- Thickness {m}
  45.006,                                 !- Conductivity {W/m-K}
  7680,                                   !- Density {kg/m3}
  418.4,                                  !- Specific Heat {J/kg-K}
  0.9,                                    !- Thermal Absorptance
  0.3,                                    !- Solar Absorptance
  0.3;                                    !- Visible Absorptance

OS:Material,
  {e1a7aa2e-d840-4afa-8e3e-55a509ca6b4e}, !- Handle
  Roof Insulation [19],                   !- Name
  MediumRough,                            !- Roughness
  0.1868,                                 !- Thickness {m}
  0.049,                                  !- Conductivity {W/m-K}
  265,                                    !- Density {kg/m3}
  836.800000000001,                       !- Specific Heat {J/kg-K}
  0.9,                                    !- Thermal Absorptance
  0.7,                                    !- Solar Absorptance
  0.7;                                    !- Visible Absorptance

OS:Construction,
  {7650cde0-6405-4c25-9df3-64e26ddc36e4}, !- Handle
  ASHRAE 189.1-2009 ExtRoof Metal ClimateZone 2-5, !- Name
  ,                                       !- Surface Rendering Name
  {cf27bcec-ae64-4ea7-b04e-95d68a7554bf}, !- Layer 1
  {7e8c7c49-9984-4eeb-8106-dc9fe5c4c379}; !- Layer 2

OS:StandardsInformation:Construction,
  {a225311b-b3c6-4920-a5de-4c7e4daf1cc8}, !- Handle
  {7650cde0-6405-4c25-9df3-64e26ddc36e4}, !- Construction Name
  ExteriorRoof,                           !- Intended Surface Type
  Metal;                                  !- Standards Construction Type

OS:Material,
  {7e8c7c49-9984-4eeb-8106-dc9fe5c4c379}, !- Handle
  Roof Insulation [22],                   !- Name
  MediumRough,                            !- Roughness
  0.2358,                                 !- Thickness {m}
  0.049,                                  !- Conductivity {W/m-K}
  265,                                    !- Density {kg/m3}
  836.800000000001,                       !- Specific Heat {J/kg-K}
  0.9,                                    !- Thermal Absorptance
  0.7,                                    !- Solar Absorptance
  0.7;                                    !- Visible Absorptance

OS:Construction,
  {de86907b-68c8-42cc-83cc-8b64b404d824}, !- Handle
  ASHRAE 189.1-2009 ExtRoof Metal ClimateZone 6, !- Name
  ,                                       !- Surface Rendering Name
  {cf27bcec-ae64-4ea7-b04e-95d68a7554bf}, !- Layer 1
  {c81e26df-c60b-417b-9d11-fc9cabb687f8}; !- Layer 2

OS:StandardsInformation:Construction,
  {9234bbfa-0b68-442b-a7fa-fb5ffe13ac43}, !- Handle
  {de86907b-68c8-42cc-83cc-8b64b404d824}, !- Construction Name
  ExteriorRoof,                           !- Intended Surface Type
  Metal;                                  !- Standards Construction Type

OS:Material,
  {c81e26df-c60b-417b-9d11-fc9cabb687f8}, !- Handle
  Roof Insulation [25],                   !- Name
  MediumRough,                            !- Roughness
  0.263,                                  !- Thickness {m}
  0.049,                                  !- Conductivity {W/m-K}
  265,                                    !- Density {kg/m3}
  836.800000000001,                       !- Specific Heat {J/kg-K}
  0.9,                                    !- Thermal Absorptance
  0.7,                                    !- Solar Absorptance
  0.7;                                    !- Visible Absorptance

OS:Construction,
  {6e59cbc2-d4c0-45f6-b0ee-80da0a1756a9}, !- Handle
  ASHRAE 189.1-2009 ExtRoof Metal ClimateZone 7-8, !- Name
  ,                                       !- Surface Rendering Name
  {cf27bcec-ae64-4ea7-b04e-95d68a7554bf}, !- Layer 1
  {3f166e7c-d8b7-485f-b3f0-b80684559a33}; !- Layer 2

OS:StandardsInformation:Construction,
  {81789e7d-477d-4853-ac13-2593da3e5c5d}, !- Handle
  {6e59cbc2-d4c0-45f6-b0ee-80da0a1756a9}, !- Construction Name
  ExteriorRoof,                           !- Intended Surface Type
  Metal;                                  !- Standards Construction Type

OS:Material,
  {3f166e7c-d8b7-485f-b3f0-b80684559a33}, !- Handle
  Roof Insulation [27],                   !- Name
  MediumRough,                            !- Roughness
  0.297000000000001,                      !- Thickness {m}
  0.049,                                  !- Conductivity {W/m-K}
  265,                                    !- Density {kg/m3}
  836.800000000001,                       !- Specific Heat {J/kg-K}
  0.9,                                    !- Thermal Absorptance
  0.7,                                    !- Solar Absorptance
  0.7;                                    !- Visible Absorptance

OS:Construction,
  {a447ed05-5a25-48f7-b8f9-64ba5bcb3d80}, !- Handle
  ASHRAE 189.1-2009 ExtWall Mass ClimateZone 1, !- Name
  ,                                       !- Surface Rendering Name
  {a43c7789-b030-44f1-8d0f-1ef8e3efda86}, !- Layer 1
  {2ed2f36e-63c3-4010-ab7f-b9d3cca15872}, !- Layer 2
  {d4904d95-d86d-491b-9865-276bc1076ba2}, !- Layer 3
  {82f59106-8aff-4a73-be13-1affdeed5d2e}; !- Layer 4

OS:StandardsInformation:Construction,
  {770d7c38-eb90-4f80-bcb3-e42f7d7a011c}, !- Handle
  {a447ed05-5a25-48f7-b8f9-64ba5bcb3d80}, !- Construction Name
  ExteriorWall,                           !- Intended Surface Type
  Mass;                                   !- Standards Construction Type

OS:Material,
  {a43c7789-b030-44f1-8d0f-1ef8e3efda86}, !- Handle
  1IN Stucco,                             !- Name
  Smooth,                                 !- Roughness
  0.0253,                                 !- Thickness {m}
  0.691799999999999,                      !- Conductivity {W/m-K}
  1858,                                   !- Density {kg/m3}
  836.999999999999,                       !- Specific Heat {J/kg-K}
  0.9,                                    !- Thermal Absorptance
  0.92,                                   !- Solar Absorptance
  0.92;                                   !- Visible Absorptance

OS:Material,
  {2ed2f36e-63c3-4010-ab7f-b9d3cca15872}, !- Handle
  8IN Concrete HW,                        !- Name
  MediumRough,                            !- Roughness
  0.2033,                                 !- Thickness {m}
  1.72959999999999,                       !- Conductivity {W/m-K}
  2242.99999999999,                       !- Density {kg/m3}
  836.999999999999,                       !- Specific Heat {J/kg-K}
  0.9,                                    !- Thermal Absorptance
  0.65,                                   !- Solar Absorptance
  0.65;                                   !- Visible Absorptance

OS:Material,
  {d4904d95-d86d-491b-9865-276bc1076ba2}, !- Handle
  Wall Insulation [31],                   !- Name
  MediumRough,                            !- Roughness
  0.0337000000000001,                     !- Thickness {m}
  0.0432,                                 !- Conductivity {W/m-K}
  91,                                     !- Density {kg/m3}
  836.999999999999,                       !- Specific Heat {J/kg-K}
  0.9,                                    !- Thermal Absorptance
  0.5,                                    !- Solar Absorptance
  0.5;                                    !- Visible Absorptance

OS:Construction,
  {ee224bd9-0ffb-4cb2-9e18-2ae641b40593}, !- Handle
  ASHRAE 189.1-2009 ExtWall Mass ClimateZone 2, !- Name
  ,                                       !- Surface Rendering Name
  {a43c7789-b030-44f1-8d0f-1ef8e3efda86}, !- Layer 1
  {2ed2f36e-63c3-4010-ab7f-b9d3cca15872}, !- Layer 2
  {8a5ce5c6-4241-4dae-bdb2-d88f19c23d7f}, !- Layer 3
  {82f59106-8aff-4a73-be13-1affdeed5d2e}; !- Layer 4

OS:StandardsInformation:Construction,
  {8277893f-064a-4477-8cce-6f02a22222a3}, !- Handle
  {ee224bd9-0ffb-4cb2-9e18-2ae641b40593}, !- Construction Name
  ExteriorWall,                           !- Intended Surface Type
  Mass;                                   !- Standards Construction Type

OS:Material,
  {8a5ce5c6-4241-4dae-bdb2-d88f19c23d7f}, !- Handle
  Wall Insulation [35],                   !- Name
  MediumRough,                            !- Roughness
  0.0452,                                 !- Thickness {m}
  0.0432,                                 !- Conductivity {W/m-K}
  91,                                     !- Density {kg/m3}
  836.999999999999,                       !- Specific Heat {J/kg-K}
  0.9,                                    !- Thermal Absorptance
  0.5,                                    !- Solar Absorptance
  0.5;                                    !- Visible Absorptance

OS:Construction,
  {3b469fab-bae7-4172-9e01-e4aa10085700}, !- Handle
  ASHRAE 189.1-2009 ExtWall Mass ClimateZone 3, !- Name
  ,                                       !- Surface Rendering Name
  {a43c7789-b030-44f1-8d0f-1ef8e3efda86}, !- Layer 1
  {2ed2f36e-63c3-4010-ab7f-b9d3cca15872}, !- Layer 2
  {87b1a7a7-f663-47fb-80dd-eb4cd02e162b}, !- Layer 3
  {82f59106-8aff-4a73-be13-1affdeed5d2e}; !- Layer 4

OS:StandardsInformation:Construction,
  {a68bab98-4961-43e8-862f-a5e12edc7804}, !- Handle
  {3b469fab-bae7-4172-9e01-e4aa10085700}, !- Construction Name
  ExteriorWall,                           !- Intended Surface Type
  Mass;                                   !- Standards Construction Type

OS:Material,
  {87b1a7a7-f663-47fb-80dd-eb4cd02e162b}, !- Handle
  Wall Insulation [36],                   !- Name
  MediumRough,                            !- Roughness
  0.0565999999999999,                     !- Thickness {m}
  0.0432,                                 !- Conductivity {W/m-K}
  91,                                     !- Density {kg/m3}
  836.999999999999,                       !- Specific Heat {J/kg-K}
  0.9,                                    !- Thermal Absorptance
  0.5,                                    !- Solar Absorptance
  0.5;                                    !- Visible Absorptance

OS:Construction,
  {d39fcf19-7b6f-48fe-96de-ec4eed934e9b}, !- Handle
  ASHRAE 189.1-2009 ExtWall Mass ClimateZone 4, !- Name
  ,                                       !- Surface Rendering Name
  {a43c7789-b030-44f1-8d0f-1ef8e3efda86}, !- Layer 1
  {2ed2f36e-63c3-4010-ab7f-b9d3cca15872}, !- Layer 2
  {5788b993-dbc0-4437-a51e-a83ee6a9a133}, !- Layer 3
  {82f59106-8aff-4a73-be13-1affdeed5d2e}; !- Layer 4

OS:StandardsInformation:Construction,
  {aa68a66e-e20e-4691-b6db-a87496729a3c}, !- Handle
  {d39fcf19-7b6f-48fe-96de-ec4eed934e9b}, !- Construction Name
  ExteriorWall,                           !- Intended Surface Type
  Mass;                                   !- Standards Construction Type

OS:Material,
  {5788b993-dbc0-4437-a51e-a83ee6a9a133}, !- Handle
  Wall Insulation [37],                   !- Name
  MediumRough,                            !- Roughness
  0.0680999999999999,                     !- Thickness {m}
  0.0432,                                 !- Conductivity {W/m-K}
  91,                                     !- Density {kg/m3}
  836.999999999999,                       !- Specific Heat {J/kg-K}
  0.9,                                    !- Thermal Absorptance
  0.5,                                    !- Solar Absorptance
  0.5;                                    !- Visible Absorptance

OS:Construction,
  {4ed20e4a-f7b9-4547-a00a-7c02477dc370}, !- Handle
  ASHRAE 189.1-2009 ExtWall Mass ClimateZone 5, !- Name
  ,                                       !- Surface Rendering Name
  {a43c7789-b030-44f1-8d0f-1ef8e3efda86}, !- Layer 1
  {2ed2f36e-63c3-4010-ab7f-b9d3cca15872}, !- Layer 2
  {0d4df842-c777-4e33-9dfa-ca973416edf9}, !- Layer 3
  {82f59106-8aff-4a73-be13-1affdeed5d2e}; !- Layer 4

OS:StandardsInformation:Construction,
  {7f30cbc3-978a-4a36-88ae-4a2429ecc34c}, !- Handle
  {4ed20e4a-f7b9-4547-a00a-7c02477dc370}, !- Construction Name
  ExteriorWall,                           !- Intended Surface Type
  Mass;                                   !- Standards Construction Type

OS:Material,
  {0d4df842-c777-4e33-9dfa-ca973416edf9}, !- Handle
  Wall Insulation [40],                   !- Name
  MediumRough,                            !- Roughness
  0.0793999999999999,                     !- Thickness {m}
  0.0432,                                 !- Conductivity {W/m-K}
  91,                                     !- Density {kg/m3}
  836.999999999999,                       !- Specific Heat {J/kg-K}
  0.9,                                    !- Thermal Absorptance
  0.5,                                    !- Solar Absorptance
  0.5;                                    !- Visible Absorptance

OS:Construction,
  {57699b21-7065-421b-abc3-0cd7806c3459}, !- Handle
  ASHRAE 189.1-2009 ExtWall Mass ClimateZone 6, !- Name
  ,                                       !- Surface Rendering Name
  {a43c7789-b030-44f1-8d0f-1ef8e3efda86}, !- Layer 1
  {2ed2f36e-63c3-4010-ab7f-b9d3cca15872}, !- Layer 2
  {e7c09202-6af9-45e8-831c-89929f98a4ea}, !- Layer 3
  {82f59106-8aff-4a73-be13-1affdeed5d2e}; !- Layer 4

OS:StandardsInformation:Construction,
  {ffd3947d-d3c9-4c5f-8872-495e66c86e8b}, !- Handle
  {57699b21-7065-421b-abc3-0cd7806c3459}, !- Construction Name
  ExteriorWall,                           !- Intended Surface Type
  Mass;                                   !- Standards Construction Type

OS:Material,
  {e7c09202-6af9-45e8-831c-89929f98a4ea}, !- Handle
  Wall Insulation [42],                   !- Name
  MediumRough,                            !- Roughness
  0.0913999999999999,                     !- Thickness {m}
  0.0432,                                 !- Conductivity {W/m-K}
  91,                                     !- Density {kg/m3}
  836.999999999999,                       !- Specific Heat {J/kg-K}
  0.9,                                    !- Thermal Absorptance
  0.5,                                    !- Solar Absorptance
  0.5;                                    !- Visible Absorptance

OS:Construction,
  {8ecf9aff-a139-4872-b5a0-a5cbfaa03e5d}, !- Handle
  ASHRAE 189.1-2009 ExtWall Mass ClimateZone 7-8, !- Name
  ,                                       !- Surface Rendering Name
  {a43c7789-b030-44f1-8d0f-1ef8e3efda86}, !- Layer 1
  {2ed2f36e-63c3-4010-ab7f-b9d3cca15872}, !- Layer 2
  {ab1e192d-40e7-4b24-97ed-977bc1d0b842}, !- Layer 3
  {82f59106-8aff-4a73-be13-1affdeed5d2e}; !- Layer 4

OS:StandardsInformation:Construction,
  {5700c3c5-e763-4044-9ed9-53d4a1854500}, !- Handle
  {8ecf9aff-a139-4872-b5a0-a5cbfaa03e5d}, !- Construction Name
  ExteriorWall,                           !- Intended Surface Type
  Mass;                                   !- Standards Construction Type

OS:Material,
  {ab1e192d-40e7-4b24-97ed-977bc1d0b842}, !- Handle
  Wall Insulation [44],                   !- Name
  MediumRough,                            !- Roughness
  0.1104,                                 !- Thickness {m}
  0.0432,                                 !- Conductivity {W/m-K}
  91,                                     !- Density {kg/m3}
  836.999999999999,                       !- Specific Heat {J/kg-K}
  0.9,                                    !- Thermal Absorptance
  0.5,                                    !- Solar Absorptance
  0.5;                                    !- Visible Absorptance

OS:Construction,
  {625e103c-7e1c-4098-a867-52f97140188b}, !- Handle
  ASHRAE 189.1-2009 ExtWall Mass ClimateZone alt-res 1, !- Name
  ,                                       !- Surface Rendering Name
  {a43c7789-b030-44f1-8d0f-1ef8e3efda86}, !- Layer 1
  {2ed2f36e-63c3-4010-ab7f-b9d3cca15872}, !- Layer 2
  {8a5ce5c6-4241-4dae-bdb2-d88f19c23d7f}, !- Layer 3
  {82f59106-8aff-4a73-be13-1affdeed5d2e}; !- Layer 4

OS:StandardsInformation:Construction,
  {4926e121-1194-450b-b560-cf425794ebbc}, !- Handle
  {625e103c-7e1c-4098-a867-52f97140188b}, !- Construction Name
  ExteriorWall,                           !- Intended Surface Type
  Mass;                                   !- Standards Construction Type

OS:Construction,
  {7da8f1e9-d9cb-4296-a032-a5354e27fe2e}, !- Handle
  ASHRAE 189.1-2009 ExtWall Mass ClimateZone alt-res 2, !- Name
  ,                                       !- Surface Rendering Name
  {a43c7789-b030-44f1-8d0f-1ef8e3efda86}, !- Layer 1
  {2ed2f36e-63c3-4010-ab7f-b9d3cca15872}, !- Layer 2
  {87b1a7a7-f663-47fb-80dd-eb4cd02e162b}, !- Layer 3
  {82f59106-8aff-4a73-be13-1affdeed5d2e}; !- Layer 4

OS:StandardsInformation:Construction,
  {a2466ddb-b1a5-4dac-8dc5-f7eb38d687da}, !- Handle
  {7da8f1e9-d9cb-4296-a032-a5354e27fe2e}, !- Construction Name
  ExteriorWall,                           !- Intended Surface Type
  Mass;                                   !- Standards Construction Type

OS:Construction,
  {e5363640-f422-4462-80ca-446ed8731e8c}, !- Handle
  ASHRAE 189.1-2009 ExtWall Mass ClimateZone alt-res 3, !- Name
  ,                                       !- Surface Rendering Name
  {a43c7789-b030-44f1-8d0f-1ef8e3efda86}, !- Layer 1
  {2ed2f36e-63c3-4010-ab7f-b9d3cca15872}, !- Layer 2
  {5788b993-dbc0-4437-a51e-a83ee6a9a133}, !- Layer 3
  {82f59106-8aff-4a73-be13-1affdeed5d2e}; !- Layer 4

OS:StandardsInformation:Construction,
  {ba6187b2-a7e6-4e47-89e9-0748b05132eb}, !- Handle
  {e5363640-f422-4462-80ca-446ed8731e8c}, !- Construction Name
  ExteriorWall,                           !- Intended Surface Type
  Mass;                                   !- Standards Construction Type

OS:Construction,
  {47897596-4965-4df6-8096-ce1fd05a70f0}, !- Handle
  ASHRAE 189.1-2009 ExtWall Mass ClimateZone alt-res 4, !- Name
  ,                                       !- Surface Rendering Name
  {a43c7789-b030-44f1-8d0f-1ef8e3efda86}, !- Layer 1
  {2ed2f36e-63c3-4010-ab7f-b9d3cca15872}, !- Layer 2
  {0d4df842-c777-4e33-9dfa-ca973416edf9}, !- Layer 3
  {82f59106-8aff-4a73-be13-1affdeed5d2e}; !- Layer 4

OS:StandardsInformation:Construction,
  {8449491b-7a57-4ead-8df5-035c0f327cac}, !- Handle
  {47897596-4965-4df6-8096-ce1fd05a70f0}, !- Construction Name
  ExteriorWall,                           !- Intended Surface Type
  Mass;                                   !- Standards Construction Type

OS:Construction,
  {c89a076e-d91c-484b-8b3f-ac138faa2b5e}, !- Handle
  ASHRAE 189.1-2009 ExtWall Mass ClimateZone alt-res 5, !- Name
  ,                                       !- Surface Rendering Name
  {a43c7789-b030-44f1-8d0f-1ef8e3efda86}, !- Layer 1
  {2ed2f36e-63c3-4010-ab7f-b9d3cca15872}, !- Layer 2
  {e7c09202-6af9-45e8-831c-89929f98a4ea}, !- Layer 3
  {82f59106-8aff-4a73-be13-1affdeed5d2e}; !- Layer 4

OS:StandardsInformation:Construction,
  {0610e910-c50b-40c1-9f9f-f5b43e9d6625}, !- Handle
  {c89a076e-d91c-484b-8b3f-ac138faa2b5e}, !- Construction Name
  ExteriorWall,                           !- Intended Surface Type
  Mass;                                   !- Standards Construction Type

OS:Construction,
  {61c50a9c-ef07-44e0-a667-3b988a89413d}, !- Handle
  ASHRAE 189.1-2009 ExtWall Mass ClimateZone alt-res 6, !- Name
  ,                                       !- Surface Rendering Name
  {a43c7789-b030-44f1-8d0f-1ef8e3efda86}, !- Layer 1
  {2ed2f36e-63c3-4010-ab7f-b9d3cca15872}, !- Layer 2
  {ab1e192d-40e7-4b24-97ed-977bc1d0b842}, !- Layer 3
  {82f59106-8aff-4a73-be13-1affdeed5d2e}; !- Layer 4

OS:StandardsInformation:Construction,
  {df27f673-1725-408f-99b6-2a9416d56db5}, !- Handle
  {61c50a9c-ef07-44e0-a667-3b988a89413d}, !- Construction Name
  ExteriorWall,                           !- Intended Surface Type
  Mass;                                   !- Standards Construction Type

OS:Construction,
  {1d591f49-520e-4a79-a9d6-fcf78d20c805}, !- Handle
  ASHRAE 189.1-2009 ExtWall Mass ClimateZone alt-res 7, !- Name
  ,                                       !- Surface Rendering Name
  {a43c7789-b030-44f1-8d0f-1ef8e3efda86}, !- Layer 1
  {2ed2f36e-63c3-4010-ab7f-b9d3cca15872}, !- Layer 2
  {ab1e192d-40e7-4b24-97ed-977bc1d0b842}, !- Layer 3
  {82f59106-8aff-4a73-be13-1affdeed5d2e}; !- Layer 4

OS:StandardsInformation:Construction,
  {c2e93915-82ad-4128-9a6b-25332851edfe}, !- Handle
  {1d591f49-520e-4a79-a9d6-fcf78d20c805}, !- Construction Name
  ExteriorWall,                           !- Intended Surface Type
  Mass;                                   !- Standards Construction Type

OS:Construction,
  {aa531369-d7d5-4ad6-88ed-61c01cd74547}, !- Handle
  ASHRAE 189.1-2009 ExtWall Mass ClimateZone alt-res 8, !- Name