
OS:Version,
  {0a553b5c-db38-4a70-846b-609152e7a9ff}, !- Handle
  1.3.3;                                  !- Version Identifier

OS:Construction,
  {6f3e3c12-bcd5-4800-8600-8092b4bbd947}, !- Handle
  ASHRAE 189.1-2009 AtticFloor ClimateZone 1-8, !- Name
  ,                                       !- Surface Rendering Name
  {d738995d-2da5-4c44-aad0-a3e7c7b57467}, !- Layer 1
  {d8aac2f0-eef9-43cd-8b2e-9cc891e097fa}, !- Layer 2
  {d738995d-2da5-4c44-aad0-a3e7c7b57467}; !- Layer 3

OS:StandardsInformation:Construction,
  {2781ac90-9f84-42dc-b4a9-9854797d147a}, !- Handle
  {6f3e3c12-bcd5-4800-8600-8092b4bbd947}, !- Construction Name
  AtticFloor,                             !- Intended Surface Type
  WoodFramed;                             !- Standards Construction Type

OS:Material,
  {d738995d-2da5-4c44-aad0-a3e7c7b57467}, !- Handle
  1/2IN Gypsum,                           !- Name
  Smooth,                                 !- Roughness
  0.0127,                                 !- Thickness {m}
  0.16,                                   !- Conductivity {W/m-K}
  784.9,                                  !- Density {kg/m3}
  830.000000000001,                       !- Specific Heat {J/kg-K}
  0.9,                                    !- Thermal Absorptance
  0.92,                                   !- Solar Absorptance
  0.92;                                   !- Visible Absorptance

OS:Material,
  {d8aac2f0-eef9-43cd-8b2e-9cc891e097fa}, !- Handle
  AtticFloor Insulation,                  !- Name
  MediumRough,                            !- Roughness
  0.2379,                                 !- Thickness {m}
  0.049,                                  !- Conductivity {W/m-K}
  265,                                    !- Density {kg/m3}
  836.800000000001,                       !- Specific Heat {J/kg-K}
  0.9,                                    !- Thermal Absorptance
  0.7,                                    !- Solar Absorptance
  0.7;                                    !- Visible Absorptance

OS:Construction,
  {e842af4c-ec84-4607-a3b9-b89c8c7caad4}, !- Handle
  ASHRAE 189.1-2009 ExtRoof IEAD ClimateZone 1, !- Name
  ,                                       !- Surface Rendering Name
  {6bfb4e5b-b50d-47bb-8570-f202decb9689}, !- Layer 1
  {e350f012-35b9-4bdf-974f-43de8577e5c4}, !- Layer 2
  {88f1300c-9ac8-4902-86f4-2c995e42374b}; !- Layer 3

OS:StandardsInformation:Construction,
  {3bc56f0a-08f7-4264-856a-d181f9d9074c}, !- Handle
  {e842af4c-ec84-4607-a3b9-b89c8c7caad4}, !- Construction Name
  ExteriorRoof,                           !- Intended Surface Type
  IEAD;                                   !- Standards Construction Type

OS:Material,
  {6bfb4e5b-b50d-47bb-8570-f202decb9689}, !- Handle
  Roof Membrane,                          !- Name
  VeryRough,                              !- Roughness
  0.0095,                                 !- Thickness {m}
  0.16,                                   !- Conductivity {W/m-K}
  1121.29,                                !- Density {kg/m3}
  1460,                                   !- Specific Heat {J/kg-K}
  0.9,                                    !- Thermal Absorptance
  0.7,                                    !- Solar Absorptance
  0.7;                                    !- Visible Absorptance

OS:Material,
  {e350f012-35b9-4bdf-974f-43de8577e5c4}, !- Handle
  Roof Insulation [18],                   !- Name
  MediumRough,                            !- Roughness
  0.1693,                                 !- Thickness {m}
  0.049,                                  !- Conductivity {W/m-K}
  265,                                    !- Density {kg/m3}
  836.800000000001,                       !- Specific Heat {J/kg-K}
  0.9,                                    !- Thermal Absorptance
  0.7,                                    !- Solar Absorptance
  0.7;                                    !- Visible Absorptance

OS:Material,
  {88f1300c-9ac8-4902-86f4-2c995e42374b}, !- Handle
  Metal Decking,                          !- Name
  MediumSmooth,                           !- Roughness
  0.0015,                                 !- Thickness {m}
  45.006,                                 !- Conductivity {W/m-K}
  7680,                                   !- Density {kg/m3}
  418.4,                                  !- Specific Heat {J/kg-K}
  0.9,                                    !- Thermal Absorptance
  0.7,                                    !- Solar Absorptance
  0.3;                                    !- Visible Absorptance

OS:Construction,
  {3d4da18f-87f6-40bb-9b72-ca58d5dfe1fe}, !- Handle
  ASHRAE 189.1-2009 ExtRoof IEAD ClimateZone 2-5, !- Name
  ,                                       !- Surface Rendering Name
  {6bfb4e5b-b50d-47bb-8570-f202decb9689}, !- Layer 1
  {46b37566-1ca0-4b8f-8707-c230e125a2fc}, !- Layer 2
  {88f1300c-9ac8-4902-86f4-2c995e42374b}; !- Layer 3

OS:StandardsInformation:Construction,
  {18d5e288-a1b9-4779-a4db-8b6674d62c64}, !- Handle
  {3d4da18f-87f6-40bb-9b72-ca58d5dfe1fe}, !- Construction Name
  ExteriorRoof,                           !- Intended Surface Type
  IEAD;                                   !- Standards Construction Type

OS:Material,
  {46b37566-1ca0-4b8f-8707-c230e125a2fc}, !- Handle
  Roof Insulation [21],                   !- Name
  MediumRough,                            !- Roughness
  0.2105,                                 !- Thickness {m}
  0.049,                                  !- Conductivity {W/m-K}
  265,                                    !- Density {kg/m3}
  836.800000000001,                       !- Specific Heat {J/kg-K}
  0.9,                                    !- Thermal Absorptance
  0.7,                                    !- Solar Absorptance
  0.7;                                    !- Visible Absorptance

OS:Construction,
  {c37d763a-52d4-4d10-bc36-628106a7587e}, !- Handle
  ASHRAE 189.1-2009 ExtRoof IEAD ClimateZone 6, !- Name
  ,                                       !- Surface Rendering Name
  {6bfb4e5b-b50d-47bb-8570-f202decb9689}, !- Layer 1
  {96391058-ee33-4f7d-a43e-b02d10635604}, !- Layer 2
  {88f1300c-9ac8-4902-86f4-2c995e42374b}; !- Layer 3

OS:StandardsInformation:Construction,
  {c235cc7f-4f6d-4aa6-ba67-a607f1440a59}, !- Handle
  {c37d763a-52d4-4d10-bc36-628106a7587e}, !- Construction Name
  ExteriorRoof,                           !- Intended Surface Type
  IEAD;                                   !- Standards Construction Type

OS:Material,
  {96391058-ee33-4f7d-a43e-b02d10635604}, !- Handle
  Roof Insulation [24],                   !- Name
  MediumRough,                            !- Roughness
  0.260100000000001,                      !- Thickness {m}
  0.049,                                  !- Conductivity {W/m-K}
  265,                                    !- Density {kg/m3}
  836.800000000001,                       !- Specific Heat {J/kg-K}
  0.9,                                    !- Thermal Absorptance
  0.7,                                    !- Solar Absorptance
  0.7;                                    !- Visible Absorptance

OS:Construction,
  {43807c34-8be7-4c16-a59e-eb8181b45480}, !- Handle
  ASHRAE 189.1-2009 ExtRoof IEAD ClimateZone 7-8, !- Name
  ,                                       !- Surface Rendering Name
  {6bfb4e5b-b50d-47bb-8570-f202decb9689}, !- Layer 1
  {fc79d698-907e-49b9-97ef-1a2f5ace9c28}, !- Layer 2
  {88f1300c-9ac8-4902-86f4-2c995e42374b}; !- Layer 3

OS:StandardsInformation:Construction,
  {22175bc9-42da-44fa-8833-4721747f7056}, !- Handle
  {43807c34-8be7-4c16-a59e-eb8181b45480}, !- Construction Name
  ExteriorRoof,                           !- Intended Surface Type
  IEAD;                                   !- Standards Construction Type

OS:Material,
  {fc79d698-907e-49b9-97ef-1a2f5ace9c28}, !- Handle
  Roof Insulation [26],                   !- Name
  MediumRough,                            !- Roughness
  0.2941,                                 !- Thickness {m}
  0.049,                                  !- Conductivity {W/m-K}
  265,                                    !- Density {kg/m3}
  836.800000000001,                       !- Specific Heat {J/kg-K}
  0.9,                                    !- Thermal Absorptance
  0.7,                                    !- Solar Absorptance
  0.7;                                    !- Visible Absorptance

OS:Construction,
  {a095ccb6-9c08-43aa-9029-fa981f77f675}, !- Handle
  ASHRAE 189.1-2009 ExtRoof Metal ClimateZone 1, !- Name
  ,                                       !- Surface Rendering Name
  {4214bb6b-356e-461c-a19e-4566b18700b5}, !- Layer 1
  {5c3a6dae-dcf9-4e26-877d-2f2ac05769ef}; !- Layer 2

OS:StandardsInformation:Construction,
  {2497a744-07f5-4954-b4e6-6c34087ce4fa}, !- Handle
  {a095ccb6-9c08-43aa-9029-fa981f77f675}, !- Construction Name
  ExteriorRoof,                           !- Intended Surface Type
  Metal;                                  !- Standards Construction Type

OS:Material,
  {4214bb6b-356e-461c-a19e-4566b18700b5}, !- Handle
  Metal Roofing,                          !- Name
  MediumSmooth,                           !- Roughness
  0.0015,                                 !- Thickness {m}
  45.006,                                 !- Conductivity {W/m-K}
  7680,                                   !- Density {kg/m3}
  418.4,                                  !- Specific Heat {J/kg-K}
  0.9,                                    !- Thermal Absorptance
  0.3,                                    !- Solar Absorptance
  0.3;                                    !- Visible Absorptance

OS:Material,
  {5c3a6dae-dcf9-4e26-877d-2f2ac05769ef}, !- Handle
  Roof Insulation [19],                   !- Name
  MediumRough,                            !- Roughness
  0.1868,                                 !- Thickness {m}
  0.049,                                  !- Conductivity {W/m-K}
  265,                                    !- Density {kg/m3}
  836.800000000001,                       !- Specific Heat {J/kg-K}
  0.9,                                    !- Thermal Absorptance
  0.7,                                    !- Solar Absorptance
  0.7;                                    !- Visible Absorptance

OS:Construction,
  {14900eab-a326-4441-9b54-828f35107be6}, !- Handle
  ASHRAE 189.1-2009 ExtRoof Metal ClimateZone 2-5, !- Name
  ,                                       !- Surface Rendering Name
  {4214bb6b-356e-461c-a19e-4566b18700b5}, !- Layer 1
  {8f126fca-ccab-4668-9dee-63f9b159f67a}; !- Layer 2

OS:StandardsInformation:Construction,
  {aab9277c-a3a1-4443-b064-9a2cda5e6012}, !- Handle
  {14900eab-a326-4441-9b54-828f35107be6}, !- Construction Name
  ExteriorRoof,                           !- Intended Surface Type
  Metal;                                  !- Standards Construction Type

OS:Material,
  {8f126fca-ccab-4668-9dee-63f9b159f67a}, !- Handle
  Roof Insulation [22],                   !- Name
  MediumRough,                            !- Roughness
  0.2358,                                 !- Thickness {m}
  0.049,                                  !- Conductivity {W/m-K}
  265,                                    !- Density {kg/m3}
  836.800000000001,                       !- Specific Heat {J/kg-K}
  0.9,                                    !- Thermal Absorptance
  0.7,                                    !- Solar Absorptance
  0.7;                                    !- Visible Absorptance

OS:Construction,
  {44f42861-8485-48f7-82c6-ae82961aee5e}, !- Handle
  ASHRAE 189.1-2009 ExtRoof Metal ClimateZone 6, !- Name
  ,                                       !- Surface Rendering Name
  {4214bb6b-356e-461c-a19e-4566b18700b5}, !- Layer 1
  {f73f3055-00d8-4a57-9867-bf882299c049}; !- Layer 2

OS:StandardsInformation:Construction,
  {68d95c48-b326-46e7-a365-3c4f04f146de}, !- Handle
  {44f42861-8485-48f7-82c6-ae82961aee5e}, !- Construction Name
  ExteriorRoof,                           !- Intended Surface Type
  Metal;                                  !- Standards Construction Type

OS:Material,
  {f73f3055-00d8-4a57-9867-bf882299c049}, !- Handle
  Roof Insulation [25],                   !- Name
  MediumRough,                            !- Roughness
  0.263,                                  !- Thickness {m}
  0.049,                                  !- Conductivity {W/m-K}
  265,                                    !- Density {kg/m3}
  836.800000000001,                       !- Specific Heat {J/kg-K}
  0.9,                                    !- Thermal Absorptance
  0.7,                                    !- Solar Absorptance
  0.7;                                    !- Visible Absorptance

OS:Construction,
  {ed3617dd-4a8c-495c-9243-7b44042b0fec}, !- Handle
  ASHRAE 189.1-2009 ExtRoof Metal ClimateZone 7-8, !- Name
  ,                                       !- Surface Rendering Name
  {4214bb6b-356e-461c-a19e-4566b18700b5}, !- Layer 1
  {273418d1-1729-4557-8af5-0df8259e6f8a}; !- Layer 2

OS:StandardsInformation:Construction,
  {a2403df7-6242-4e0e-b67d-379bb506253f}, !- Handle
  {ed3617dd-4a8c-495c-9243-7b44042b0fec}, !- Construction Name
  ExteriorRoof,                           !- Intended Surface Type
  Metal;                                  !- Standards Construction Type

OS:Material,
  {273418d1-1729-4557-8af5-0df8259e6f8a}, !- Handle
  Roof Insulation [27],                   !- Name
  MediumRough,                            !- Roughness
  0.297000000000001,                      !- Thickness {m}
  0.049,                                  !- Conductivity {W/m-K}
  265,                                    !- Density {kg/m3}
  836.800000000001,                       !- Specific Heat {J/kg-K}
  0.9,                                    !- Thermal Absorptance
  0.7,                                    !- Solar Absorptance
  0.7;                                    !- Visible Absorptance

OS:Construction,
  {c690c1aa-b880-4fa4-91c9-bea41f6d073d}, !- Handle
  ASHRAE 189.1-2009 ExtWall Mass ClimateZone 1, !- Name
  ,                                       !- Surface Rendering Name
  {79472525-6dfd-4b02-b34b-6d40e0d5a67f}, !- Layer 1
  {756bd18d-e27a-457d-8c84-9490ff76e1c2}, !- Layer 2
  {db8ec980-116a-4e3b-a498-c33ea195daf1}, !- Layer 3
  {d738995d-2da5-4c44-aad0-a3e7c7b57467}; !- Layer 4

OS:StandardsInformation:Construction,
  {5b7f6a21-fed0-4427-aebb-e7d89517c90f}, !- Handle
  {c690c1aa-b880-4fa4-91c9-bea41f6d073d}, !- Construction Name
  ExteriorWall,                           !- Intended Surface Type
  Mass;                                   !- Standards Construction Type

OS:Material,
  {79472525-6dfd-4b02-b34b-6d40e0d5a67f}, !- Handle
  1IN Stucco,                             !- Name
  Smooth,                                 !- Roughness
  0.0253,                                 !- Thickness {m}
  0.691799999999999,                      !- Conductivity {W/m-K}
  1858,                                   !- Density {kg/m3}
  836.999999999999,                       !- Specific Heat {J/kg-K}
  0.9,                                    !- Thermal Absorptance
  0.92,                                   !- Solar Absorptance
  0.92;                                   !- Visible Absorptance

OS:Material,
  {756bd18d-e27a-457d-8c84-9490ff76e1c2}, !- Handle
  8IN Concrete HW,                        !- Name
  MediumRough,                            !- Roughness
  0.2033,                                 !- Thickness {m}
  1.72959999999999,                       !- Conductivity {W/m-K}
  2242.99999999999,                       !- Density {kg/m3}
  836.999999999999,                       !- Specific Heat {J/kg-K}
  0.9,                                    !- Thermal Absorptance
  0.65,                                   !- Solar Absorptance
  0.65;                                   !- Visible Absorptance

OS:Material,
  {db8ec980-116a-4e3b-a498-c33ea195daf1}, !- Handle
  Wall Insulation [31],                   !- Name
  MediumRough,                            !- Roughness
  0.0337000000000001,                     !- Thickness {m}
  0.0432,                                 !- Conductivity {W/m-K}
  91,                                     !- Density {kg/m3}
  836.999999999999,                       !- Specific Heat {J/kg-K}
  0.9,                                    !- Thermal Absorptance
  0.5,                                    !- Solar Absorptance
  0.5;                                    !- Visible Absorptance

OS:Construction,
  {08dfe575-ca1a-4008-b858-deabe1611d7f}, !- Handle
  ASHRAE 189.1-2009 ExtWall Mass ClimateZone 2, !- Name
  ,                                       !- Surface Rendering Name
  {79472525-6dfd-4b02-b34b-6d40e0d5a67f}, !- Layer 1
  {756bd18d-e27a-457d-8c84-9490ff76e1c2}, !- Layer 2
  {0be577e3-0900-4450-b6df-ffc30f9d48fb}, !- Layer 3
  {d738995d-2da5-4c44-aad0-a3e7c7b57467}; !- Layer 4

OS:StandardsInformation:Construction,
  {286fa2be-bf9a-4ead-a6ba-eed44cf88ae7}, !- Handle
  {08dfe575-ca1a-4008-b858-deabe1611d7f}, !- Construction Name
  ExteriorWall,                           !- Intended Surface Type
  Mass;                                   !- Standards Construction Type

OS:Material,
  {0be577e3-0900-4450-b6df-ffc30f9d48fb}, !- Handle
  Wall Insulation [35],                   !- Name
  MediumRough,                            !- Roughness
  0.0452,                                 !- Thickness {m}
  0.0432,                                 !- Conductivity {W/m-K}
  91,                                     !- Density {kg/m3}
  836.999999999999,                       !- Specific Heat {J/kg-K}
  0.9,                                    !- Thermal Absorptance
  0.5,                                    !- Solar Absorptance
  0.5;                                    !- Visible Absorptance

OS:Construction,
  {84b3e970-e212-4db2-9133-c09e96994670}, !- Handle
  ASHRAE 189.1-2009 ExtWall Mass ClimateZone 3, !- Name
  ,                                       !- Surface Rendering Name
  {79472525-6dfd-4b02-b34b-6d40e0d5a67f}, !- Layer 1
  {756bd18d-e27a-457d-8c84-9490ff76e1c2}, !- Layer 2
  {1ad0ec3b-7a67-4b0b-b03c-7256f4ec5b67}, !- Layer 3
  {d738995d-2da5-4c44-aad0-a3e7c7b57467}; !- Layer 4

OS:StandardsInformation:Construction,
  {61b0943b-c7ae-4a9a-95ea-6c0b64c73ede}, !- Handle
  {84b3e970-e212-4db2-9133-c09e96994670}, !- Construction Name
  ExteriorWall,                           !- Intended Surface Type
  Mass;                                   !- Standards Construction Type

OS:Material,
  {1ad0ec3b-7a67-4b0b-b03c-7256f4ec5b67}, !- Handle
  Wall Insulation [36],                   !- Name
  MediumRough,                            !- Roughness
  0.0565999999999999,                     !- Thickness {m}
  0.0432,                                 !- Conductivity {W/m-K}
  91,                                     !- Density {kg/m3}
  836.999999999999,                       !- Specific Heat {J/kg-K}
  0.9,                                    !- Thermal Absorptance
  0.5,                                    !- Solar Absorptance
  0.5;                                    !- Visible Absorptance

OS:Construction,
  {b4eb6415-5364-405e-b143-21ebd454d34c}, !- Handle
  ASHRAE 189.1-2009 ExtWall Mass ClimateZone 4, !- Name
  ,                                       !- Surface Rendering Name
  {79472525-6dfd-4b02-b34b-6d40e0d5a67f}, !- Layer 1
  {756bd18d-e27a-457d-8c84-9490ff76e1c2}, !- Layer 2
  {d809bd7d-8062-4dfb-a9da-d462d202a915}, !- Layer 3
  {d738995d-2da5-4c44-aad0-a3e7c7b57467}; !- Layer 4

OS:StandardsInformation:Construction,
  {4e6caf91-1b42-45f2-aa5e-be5d8f2f4445}, !- Handle
  {b4eb6415-5364-405e-b143-21ebd454d34c}, !- Construction Name
  ExteriorWall,                           !- Intended Surface Type
  Mass;                                   !- Standards Construction Type

OS:Material,
  {d809bd7d-8062-4dfb-a9da-d462d202a915}, !- Handle
  Wall Insulation [37],                   !- Name
  MediumRough,                            !- Roughness
  0.0680999999999999,                     !- Thickness {m}
  0.0432,                                 !- Conductivity {W/m-K}
  91,                                     !- Density {kg/m3}
  836.999999999999,                       !- Specific Heat {J/kg-K}
  0.9,                                    !- Thermal Absorptance
  0.5,                                    !- Solar Absorptance
  0.5;                                    !- Visible Absorptance

OS:Construction,
  {5583f9f0-9e4b-48e0-815d-083cc4af1929}, !- Handle
  ASHRAE 189.1-2009 ExtWall Mass ClimateZone 5, !- Name
  ,                                       !- Surface Rendering Name
  {79472525-6dfd-4b02-b34b-6d40e0d5a67f}, !- Layer 1
  {756bd18d-e27a-457d-8c84-9490ff76e1c2}, !- Layer 2
  {6acb89a8-75ee-479c-97e5-e86ca1abda6f}, !- Layer 3
  {d738995d-2da5-4c44-aad0-a3e7c7b57467}; !- Layer 4

OS:StandardsInformation:Construction,
  {34fa6df1-3ac7-416e-bc10-c152b5dfe606}, !- Handle
  {5583f9f0-9e4b-48e0-815d-083cc4af1929}, !- Construction Name
  ExteriorWall,                           !- Intended Surface Type
  Mass;                                   !- Standards Construction Type

OS:Material,
  {6acb89a8-75ee-479c-97e5-e86ca1abda6f}, !- Handle
  Wall Insulation [40],                   !- Name
  MediumRough,                            !- Roughness
  0.0793999999999999,                     !- Thickness {m}
  0.0432,                                 !- Conductivity {W/m-K}
  91,                                     !- Density {kg/m3}
  836.999999999999,                       !- Specific Heat {J/kg-K}
  0.9,                                    !- Thermal Absorptance
  0.5,                                    !- Solar Absorptance
  0.5;                                    !- Visible Absorptance

OS:Construction,
  {6eef1fcf-385a-4249-8937-7f317c6e4213}, !- Handle
  ASHRAE 189.1-2009 ExtWall Mass ClimateZone 6, !- Name
  ,                                       !- Surface Rendering Name
  {79472525-6dfd-4b02-b34b-6d40e0d5a67f}, !- Layer 1
  {756bd18d-e27a-457d-8c84-9490ff76e1c2}, !- Layer 2
  {840eefc3-bb2f-4584-b51e-2c43f0a37e10}, !- Layer 3
  {d738995d-2da5-4c44-aad0-a3e7c7b57467}; !- Layer 4

OS:StandardsInformation:Construction,
  {583128ce-8457-41a6-a4ff-f7de99fcad8c}, !- Handle
  {6eef1fcf-385a-4249-8937-7f317c6e4213}, !- Construction Name
  ExteriorWall,                           !- Intended Surface Type
  Mass;                                   !- Standards Construction Type

OS:Material,
  {840eefc3-bb2f-4584-b51e-2c43f0a37e10}, !- Handle
  Wall Insulation [42],                   !- Name
  MediumRough,                            !- Roughness
  0.0913999999999999,                     !- Thickness {m}
  0.0432,                                 !- Conductivity {W/m-K}
  91,                                     !- Density {kg/m3}
  836.999999999999,                       !- Specific Heat {J/kg-K}
  0.9,                                    !- Thermal Absorptance
  0.5,                                    !- Solar Absorptance
  0.5;                                    !- Visible Absorptance

OS:Construction,
  {bcc96de1-bcd1-4827-b1b2-7a0a2aa94cd1}, !- Handle
  ASHRAE 189.1-2009 ExtWall Mass ClimateZone 7-8, !- Name
  ,                                       !- Surface Rendering Name
  {79472525-6dfd-4b02-b34b-6d40e0d5a67f}, !- Layer 1
  {756bd18d-e27a-457d-8c84-9490ff76e1c2}, !- Layer 2
  {e1928c24-b3cf-4fb8-81b1-d988ae18aac2}, !- Layer 3
  {d738995d-2da5-4c44-aad0-a3e7c7b57467}; !- Layer 4

OS:StandardsInformation:Construction,
  {cabfad18-1856-46de-98fa-c54c7d502491}, !- Handle
  {bcc96de1-bcd1-4827-b1b2-7a0a2aa94cd1}, !- Construction Name
  ExteriorWall,                           !- Intended Surface Type
  Mass;                                   !- Standards Construction Type

OS:Material,
  {e1928c24-b3cf-4fb8-81b1-d988ae18aac2}, !- Handle
  Wall Insulation [44],                   !- Name
  MediumRough,                            !- Roughness
  0.1104,                                 !- Thickness {m}
  0.0432,                                 !- Conductivity {W/m-K}
  91,                                     !- Density {kg/m3}
  836.999999999999,                       !- Specific Heat {J/kg-K}
  0.9,                                    !- Thermal Absorptance
  0.5,                                    !- Solar Absorptance
  0.5;                                    !- Visible Absorptance

OS:Construction,
  {24616945-eafc-45fa-aed1-60b41cb0ad21}, !- Handle
  ASHRAE 189.1-2009 ExtWall Mass ClimateZone alt-res 1, !- Name
  ,                                       !- Surface Rendering Name
  {79472525-6dfd-4b02-b34b-6d40e0d5a67f}, !- Layer 1
  {756bd18d-e27a-457d-8c84-9490ff76e1c2}, !- Layer 2
  {0be577e3-0900-4450-b6df-ffc30f9d48fb}, !- Layer 3
  {d738995d-2da5-4c44-aad0-a3e7c7b57467}; !- Layer 4

OS:StandardsInformation:Construction,
  {0545246e-1b89-4e4b-acad-654e04535bf7}, !- Handle
  {24616945-eafc-45fa-aed1-60b41cb0ad21}, !- Construction Name
  ExteriorWall,                           !- Intended Surface Type
  Mass;                                   !- Standards Construction Type

OS:Construction,
  {5590171a-f6b9-4855-94b6-1a1e69385f88}, !- Handle
  ASHRAE 189.1-2009 ExtWall Mass ClimateZone alt-res 2, !- Name
  ,                                       !- Surface Rendering Name
  {79472525-6dfd-4b02-b34b-6d40e0d5a67f}, !- Layer 1
  {756bd18d-e27a-457d-8c84-9490ff76e1c2}, !- Layer 2
  {1ad0ec3b-7a67-4b0b-b03c-7256f4ec5b67}, !- Layer 3
  {d738995d-2da5-4c44-aad0-a3e7c7b57467}; !- Layer 4

OS:StandardsInformation:Construction,
  {09391168-aaf7-48ba-8a90-a458eca262b7}, !- Handle
  {5590171a-f6b9-4855-94b6-1a1e69385f88}, !- Construction Name
  ExteriorWall,                           !- Intended Surface Type
  Mass;                                   !- Standards Construction Type

OS:Construction,
  {4877c1a0-84e0-496f-acf9-c98e688bc5c6}, !- Handle
  ASHRAE 189.1-2009 ExtWall Mass ClimateZone alt-res 3, !- Name
  ,                                       !- Surface Rendering Name
  {79472525-6dfd-4b02-b34b-6d40e0d5a67f}, !- Layer 1
  {756bd18d-e27a-457d-8c84-9490ff76e1c2}, !- Layer 2
  {d809bd7d-8062-4dfb-a9da-d462d202a915}, !- Layer 3
  {d738995d-2da5-4c44-aad0-a3e7c7b57467}; !- Layer 4

OS:StandardsInformation:Construction,
  {175f1d60-e1c5-478b-bc9a-bd3f40ed93f3}, !- Handle
  {4877c1a0-84e0-496f-acf9-c98e688bc5c6}, !- Construction Name
  ExteriorWall,                           !- Intended Surface Type
  Mass;                                   !- Standards Construction Type

OS:Construction,
  {09515642-454c-4984-92a3-ee29897857ac}, !- Handle
  ASHRAE 189.1-2009 ExtWall Mass ClimateZone alt-res 4, !- Name
  ,                                       !- Surface Rendering Name
  {79472525-6dfd-4b02-b34b-6d40e0d5a67f}, !- Layer 1
  {756bd18d-e27a-457d-8c84-9490ff76e1c2}, !- Layer 2
  {6acb89a8-75ee-479c-97e5-e86ca1abda6f}, !- Layer 3
  {d738995d-2da5-4c44-aad0-a3e7c7b57467}; !- Layer 4

OS:StandardsInformation:Construction,
  {4cc798ec-c78a-4e1f-aa53-f829f497e4cf}, !- Handle
  {09515642-454c-4984-92a3-ee29897857ac}, !- Construction Name
  ExteriorWall,                           !- Intended Surface Type
  Mass;                                   !- Standards Construction Type

OS:Construction,
  {4a9ef74c-ef9f-4034-9469-75cf4904867a}, !- Handle
  ASHRAE 189.1-2009 ExtWall Mass ClimateZone alt-res 5, !- Name
  ,                                       !- Surface Rendering Name
  {79472525-6dfd-4b02-b34b-6d40e0d5a67f}, !- Layer 1
  {756bd18d-e27a-457d-8c84-9490ff76e1c2}, !- Layer 2
  {840eefc3-bb2f-4584-b51e-2c43f0a37e10}, !- Layer 3
  {d738995d-2da5-4c44-aad0-a3e7c7b57467}; !- Layer 4

OS:StandardsInformation:Construction,
  {5f23009c-f34d-42b4-b69e-508b21c4d203}, !- Handle
  {4a9ef74c-ef9f-4034-9469-75cf4904867a}, !- Construction Name
  ExteriorWall,                           !- Intended Surface Type
  Mass;                                   !- Standards Construction Type

OS:Construction,
  {7027102b-d078-4a61-94dc-bf0b528381c9}, !- Handle
  ASHRAE 189.1-2009 ExtWall Mass ClimateZone alt-res 6, !- Name
  ,                                       !- Surface Rendering Name
  {79472525-6dfd-4b02-b34b-6d40e0d5a67f}, !- Layer 1
  {756bd18d-e27a-457d-8c84-9490ff76e1c2}, !- Layer 2
  {e1928c24-b3cf-4fb8-81b1-d988ae18aac2}, !- Layer 3
  {d738995d-2da5-4c44-aad0-a3e7c7b57467}; !- Layer 4

OS:StandardsInformation:Construction,
  {40bbfee5-4d5e-4124-91d9-ed157bc9a878}, !- Handle
  {7027102b-d078-4a61-94dc-bf0b528381c9}, !- Construction Name
  ExteriorWall,                           !- Intended Surface Type
  Mass;                                   !- Standards Construction Type

OS:Construction,
  {604f14d7-de96-4f0a-b40a-d6de2fbd9580}, !- Handle
  ASHRAE 189.1-2009 ExtWall Mass ClimateZone alt-res 7, !- Name
  ,                                       !- Surface Rendering Name
  {79472525-6dfd-4b02-b34b-6d40e0d5a67f}, !- Layer 1
  {756bd18d-e27a-457d-8c84-9490ff76e1c2}, !- Layer 2
  {e1928c24-b3cf-4fb8-81b1-d988ae18aac2}, !- Layer 3
  {d738995d-2da5-4c44-aad0-a3e7c7b57467}; !- Layer 4

OS:StandardsInformation:Construction,
  {63cf91f2-b4cb-48c5-a687-6b33d05546aa}, !- Handle
  {604f14d7-de96-4f0a-b40a-d6de2fbd9580}, !- Construction Name
  ExteriorWall,                           !- Intended Surface Type
  Mass;                                   !- Standards Construction Type

OS:Construction,
  {b4df93c2-bd26-4cfa-8569-34644043a452}, !- Handle
  ASHRAE 189.1-2009 ExtWall Mass ClimateZone alt-res 8, !- Name