
OS:Version,
  {fa40edca-b347-4ae3-9c0f-4c39f1c7a50f}, !- Handle
  1.3.0;                                  !- Version Identifier

OS:Construction,
  {6bd32cf1-5725-4cb2-b78b-7f0176c06ffc}, !- Handle
  ASHRAE 189.1-2009 AtticFloor ClimateZone 1-8, !- Name
  ,                                       !- Surface Rendering Name
  {3ff1574b-052d-485a-bb32-6ae622de93d6}, !- Layer 1
  {e55e51a5-a736-4dd3-a3c7-60c88e4947d3}, !- Layer 2
  {3ff1574b-052d-485a-bb32-6ae622de93d6}; !- Layer 3

OS:StandardsInformation:Construction,
  {4330e9c7-4fd3-469c-9855-0a1e43baa7d1}, !- Handle
  {6bd32cf1-5725-4cb2-b78b-7f0176c06ffc}, !- Construction Name
  AtticFloor,                             !- Intended Surface Type
  WoodFramed;                             !- Standards Construction Type

OS:Material,
  {3ff1574b-052d-485a-bb32-6ae622de93d6}, !- Handle
  1/2IN Gypsum,                           !- Name
  Smooth,                                 !- Roughness
  0.0127,                                 !- Thickness {m}
  0.16,                                   !- Conductivity {W/m-K}
  784.9,                                  !- Density {kg/m3}
  830.000000000001,                       !- Specific Heat {J/kg-K}
  0.9,                                    !- Thermal Absorptance
  0.92,                                   !- Solar Absorptance
  0.92;                                   !- Visible Absorptance

OS:Material,
  {e55e51a5-a736-4dd3-a3c7-60c88e4947d3}, !- Handle
  AtticFloor Insulation,                  !- Name
  MediumRough,                            !- Roughness
  0.2379,                                 !- Thickness {m}
  0.049,                                  !- Conductivity {W/m-K}
  265,                                    !- Density {kg/m3}
  836.800000000001,                       !- Specific Heat {J/kg-K}
  0.9,                                    !- Thermal Absorptance
  0.7,                                    !- Solar Absorptance
  0.7;                                    !- Visible Absorptance

OS:Construction,
  {25d6ae53-63bb-4856-9ac6-2d80e2e6c50d}, !- Handle
  ASHRAE 189.1-2009 ExtRoof IEAD ClimateZone 1, !- Name
  ,                                       !- Surface Rendering Name
  {1bcb7283-ee6d-48d8-a97c-18bddceec743}, !- Layer 1
  {8a4c9fa6-d2e8-45aa-8816-e21228277000}, !- Layer 2
  {67aaed89-edb1-4d57-a708-315e50a2e7b3}; !- Layer 3

OS:StandardsInformation:Construction,
  {9b599407-9fcd-45fc-a782-e598422ac062}, !- Handle
  {25d6ae53-63bb-4856-9ac6-2d80e2e6c50d}, !- Construction Name
  ExteriorRoof,                           !- Intended Surface Type
  IEAD;                                   !- Standards Construction Type

OS:Material,
  {1bcb7283-ee6d-48d8-a97c-18bddceec743}, !- Handle
  Roof Membrane,                          !- Name
  VeryRough,                              !- Roughness
  0.0095,                                 !- Thickness {m}
  0.16,                                   !- Conductivity {W/m-K}
  1121.29,                                !- Density {kg/m3}
  1460,                                   !- Specific Heat {J/kg-K}
  0.9,                                    !- Thermal Absorptance
  0.7,                                    !- Solar Absorptance
  0.7;                                    !- Visible Absorptance

OS:Material,
  {8a4c9fa6-d2e8-45aa-8816-e21228277000}, !- Handle
  Roof Insulation [18],                   !- Name
  MediumRough,                            !- Roughness
  0.1693,                                 !- Thickness {m}
  0.049,                                  !- Conductivity {W/m-K}
  265,                                    !- Density {kg/m3}
  836.800000000001,                       !- Specific Heat {J/kg-K}
  0.9,                                    !- Thermal Absorptance
  0.7,                                    !- Solar Absorptance
  0.7;                                    !- Visible Absorptance

OS:Material,
  {67aaed89-edb1-4d57-a708-315e50a2e7b3}, !- Handle
  Metal Decking,                          !- Name
  MediumSmooth,                           !- Roughness
  0.0015,                                 !- Thickness {m}
  45.006,                                 !- Conductivity {W/m-K}
  7680,                                   !- Density {kg/m3}
  418.4,                                  !- Specific Heat {J/kg-K}
  0.9,                                    !- Thermal Absorptance
  0.7,                                    !- Solar Absorptance
  0.3;                                    !- Visible Absorptance

OS:Construction,
  {502183d0-65f2-4e38-a11b-efda472346bc}, !- Handle
  ASHRAE 189.1-2009 ExtRoof IEAD ClimateZone 2-5, !- Name
  ,                                       !- Surface Rendering Name
  {1bcb7283-ee6d-48d8-a97c-18bddceec743}, !- Layer 1
  {c28b2973-ba7d-4526-b7fa-25b453549823}, !- Layer 2
  {67aaed89-edb1-4d57-a708-315e50a2e7b3}; !- Layer 3

OS:StandardsInformation:Construction,
  {7bea9988-c27e-4c12-9c5d-c5e6ae62df68}, !- Handle
  {502183d0-65f2-4e38-a11b-efda472346bc}, !- Construction Name
  ExteriorRoof,                           !- Intended Surface Type
  IEAD;                                   !- Standards Construction Type

OS:Material,
  {c28b2973-ba7d-4526-b7fa-25b453549823}, !- Handle
  Roof Insulation [21],                   !- Name
  MediumRough,                            !- Roughness
  0.2105,                                 !- Thickness {m}
  0.049,                                  !- Conductivity {W/m-K}
  265,                                    !- Density {kg/m3}
  836.800000000001,                       !- Specific Heat {J/kg-K}
  0.9,                                    !- Thermal Absorptance
  0.7,                                    !- Solar Absorptance
  0.7;                                    !- Visible Absorptance

OS:Construction,
  {5c69038d-5801-4f01-81fb-bd32d304a13d}, !- Handle
  ASHRAE 189.1-2009 ExtRoof IEAD ClimateZone 6, !- Name
  ,                                       !- Surface Rendering Name
  {1bcb7283-ee6d-48d8-a97c-18bddceec743}, !- Layer 1
  {4afab36f-0de6-481f-84fc-0f178ef54b49}, !- Layer 2
  {67aaed89-edb1-4d57-a708-315e50a2e7b3}; !- Layer 3

OS:StandardsInformation:Construction,
  {b21093e4-b36a-468b-8abf-3840d7267170}, !- Handle
  {5c69038d-5801-4f01-81fb-bd32d304a13d}, !- Construction Name
  ExteriorRoof,                           !- Intended Surface Type
  IEAD;                                   !- Standards Construction Type

OS:Material,
  {4afab36f-0de6-481f-84fc-0f178ef54b49}, !- Handle
  Roof Insulation [24],                   !- Name
  MediumRough,                            !- Roughness
  0.260100000000001,                      !- Thickness {m}
  0.049,                                  !- Conductivity {W/m-K}
  265,                                    !- Density {kg/m3}
  836.800000000001,                       !- Specific Heat {J/kg-K}
  0.9,                                    !- Thermal Absorptance
  0.7,                                    !- Solar Absorptance
  0.7;                                    !- Visible Absorptance

OS:Construction,
  {8c57ca4d-3781-450a-8baf-18d9751e6c8a}, !- Handle
  ASHRAE 189.1-2009 ExtRoof IEAD ClimateZone 7-8, !- Name
  ,                                       !- Surface Rendering Name
  {1bcb7283-ee6d-48d8-a97c-18bddceec743}, !- Layer 1
  {84a40290-17cd-47fa-b6bb-59271811243b}, !- Layer 2
  {67aaed89-edb1-4d57-a708-315e50a2e7b3}; !- Layer 3

OS:StandardsInformation:Construction,
  {f1bb3eab-054b-42a9-b472-06692a31c8ca}, !- Handle
  {8c57ca4d-3781-450a-8baf-18d9751e6c8a}, !- Construction Name
  ExteriorRoof,                           !- Intended Surface Type
  IEAD;                                   !- Standards Construction Type

OS:Material,
  {84a40290-17cd-47fa-b6bb-59271811243b}, !- Handle
  Roof Insulation [26],                   !- Name
  MediumRough,                            !- Roughness
  0.2941,                                 !- Thickness {m}
  0.049,                                  !- Conductivity {W/m-K}
  265,                                    !- Density {kg/m3}
  836.800000000001,                       !- Specific Heat {J/kg-K}
  0.9,                                    !- Thermal Absorptance
  0.7,                                    !- Solar Absorptance
  0.7;                                    !- Visible Absorptance

OS:Construction,
  {bdde56f1-3148-463d-9e89-96ee4846d9e5}, !- Handle
  ASHRAE 189.1-2009 ExtRoof Metal ClimateZone 1, !- Name
  ,                                       !- Surface Rendering Name
  {f446f82e-1417-4891-99c1-f8b5b97697c4}, !- Layer 1
  {ca0c3533-66c3-45cd-8345-f51025e5a669}; !- Layer 2

OS:StandardsInformation:Construction,
  {fd8a90a5-0ffb-4d05-a172-657998ae0ace}, !- Handle
  {bdde56f1-3148-463d-9e89-96ee4846d9e5}, !- Construction Name
  ExteriorRoof,                           !- Intended Surface Type
  Metal;                                  !- Standards Construction Type

OS:Material,
  {f446f82e-1417-4891-99c1-f8b5b97697c4}, !- Handle
  Metal Roofing,                          !- Name
  MediumSmooth,                           !- Roughness
  0.0015,                                 !- Thickness {m}
  45.006,                                 !- Conductivity {W/m-K}
  7680,                                   !- Density {kg/m3}
  418.4,                                  !- Specific Heat {J/kg-K}
  0.9,                                    !- Thermal Absorptance
  0.3,                                    !- Solar Absorptance
  0.3;                                    !- Visible Absorptance

OS:Material,
  {ca0c3533-66c3-45cd-8345-f51025e5a669}, !- Handle
  Roof Insulation [19],                   !- Name
  MediumRough,                            !- Roughness
  0.1868,                                 !- Thickness {m}
  0.049,                                  !- Conductivity {W/m-K}
  265,                                    !- Density {kg/m3}
  836.800000000001,                       !- Specific Heat {J/kg-K}
  0.9,                                    !- Thermal Absorptance
  0.7,                                    !- Solar Absorptance
  0.7;                                    !- Visible Absorptance

OS:Construction,
  {315ce5cc-5f2c-4e87-8894-f43795e022a0}, !- Handle
  ASHRAE 189.1-2009 ExtRoof Metal ClimateZone 2-5, !- Name
  ,                                       !- Surface Rendering Name
  {f446f82e-1417-4891-99c1-f8b5b97697c4}, !- Layer 1
  {979b5c1b-cc66-48dd-bf36-e4432a5a8da2}; !- Layer 2

OS:StandardsInformation:Construction,
  {beef5763-a712-4e91-8f0e-ab87523428e0}, !- Handle
  {315ce5cc-5f2c-4e87-8894-f43795e022a0}, !- Construction Name
  ExteriorRoof,                           !- Intended Surface Type
  Metal;                                  !- Standards Construction Type

OS:Material,
  {979b5c1b-cc66-48dd-bf36-e4432a5a8da2}, !- Handle
  Roof Insulation [22],                   !- Name
  MediumRough,                            !- Roughness
  0.2358,                                 !- Thickness {m}
  0.049,                                  !- Conductivity {W/m-K}
  265,                                    !- Density {kg/m3}
  836.800000000001,                       !- Specific Heat {J/kg-K}
  0.9,                                    !- Thermal Absorptance
  0.7,                                    !- Solar Absorptance
  0.7;                                    !- Visible Absorptance

OS:Construction,
  {a658f84b-3539-412b-b4b6-3db217f7858f}, !- Handle
  ASHRAE 189.1-2009 ExtRoof Metal ClimateZone 6, !- Name
  ,                                       !- Surface Rendering Name
  {f446f82e-1417-4891-99c1-f8b5b97697c4}, !- Layer 1
  {650f7145-a267-436f-ae18-9fee33e0bf4c}; !- Layer 2

OS:StandardsInformation:Construction,
  {e8dfbce9-f33f-4f00-ad78-10ad91e2b19c}, !- Handle
  {a658f84b-3539-412b-b4b6-3db217f7858f}, !- Construction Name
  ExteriorRoof,                           !- Intended Surface Type
  Metal;                                  !- Standards Construction Type

OS:Material,
  {650f7145-a267-436f-ae18-9fee33e0bf4c}, !- Handle
  Roof Insulation [25],                   !- Name
  MediumRough,                            !- Roughness
  0.263,                                  !- Thickness {m}
  0.049,                                  !- Conductivity {W/m-K}
  265,                                    !- Density {kg/m3}
  836.800000000001,                       !- Specific Heat {J/kg-K}
  0.9,                                    !- Thermal Absorptance
  0.7,                                    !- Solar Absorptance
  0.7;                                    !- Visible Absorptance

OS:Construction,
  {145edb78-ee0d-4083-a901-c620ee4d03c6}, !- Handle
  ASHRAE 189.1-2009 ExtRoof Metal ClimateZone 7-8, !- Name
  ,                                       !- Surface Rendering Name
  {f446f82e-1417-4891-99c1-f8b5b97697c4}, !- Layer 1
  {346e65bb-4b88-41a2-8eab-366cf0cf9898}; !- Layer 2

OS:StandardsInformation:Construction,
  {ffdef0d5-66a1-49d2-ae39-f3ceef526686}, !- Handle
  {145edb78-ee0d-4083-a901-c620ee4d03c6}, !- Construction Name
  ExteriorRoof,                           !- Intended Surface Type
  Metal;                                  !- Standards Construction Type

OS:Material,
  {346e65bb-4b88-41a2-8eab-366cf0cf9898}, !- Handle
  Roof Insulation [27],                   !- Name
  MediumRough,                            !- Roughness
  0.297000000000001,                      !- Thickness {m}
  0.049,                                  !- Conductivity {W/m-K}
  265,                                    !- Density {kg/m3}
  836.800000000001,                       !- Specific Heat {J/kg-K}
  0.9,                                    !- Thermal Absorptance
  0.7,                                    !- Solar Absorptance
  0.7;                                    !- Visible Absorptance

OS:Construction,
  {62b06b22-03e7-4b6d-8f41-f08049601e8a}, !- Handle
  ASHRAE 189.1-2009 ExtWall Mass ClimateZone 1, !- Name
  ,                                       !- Surface Rendering Name
  {e8847a6d-c332-481e-910c-527ed3d6a87f}, !- Layer 1
  {4660d501-820a-4894-9eb4-5fb67e97e9ec}, !- Layer 2
  {7d3d52e3-5099-4362-b717-6abeea020f43}, !- Layer 3
  {3ff1574b-052d-485a-bb32-6ae622de93d6}; !- Layer 4

OS:StandardsInformation:Construction,
  {9ba799b0-14a2-4395-a5b4-3cf4f9166847}, !- Handle
  {62b06b22-03e7-4b6d-8f41-f08049601e8a}, !- Construction Name
  ExteriorWall,                           !- Intended Surface Type
  Mass;                                   !- Standards Construction Type

OS:Material,
  {e8847a6d-c332-481e-910c-527ed3d6a87f}, !- Handle
  1IN Stucco,                             !- Name
  Smooth,                                 !- Roughness
  0.0253,                                 !- Thickness {m}
  0.691799999999999,                      !- Conductivity {W/m-K}
  1858,                                   !- Density {kg/m3}
  836.999999999999,                       !- Specific Heat {J/kg-K}
  0.9,                                    !- Thermal Absorptance
  0.92,                                   !- Solar Absorptance
  0.92;                                   !- Visible Absorptance

OS:Material,
  {4660d501-820a-4894-9eb4-5fb67e97e9ec}, !- Handle
  8IN Concrete HW,                        !- Name
  MediumRough,                            !- Roughness
  0.2033,                                 !- Thickness {m}
  1.72959999999999,                       !- Conductivity {W/m-K}
  2242.99999999999,                       !- Density {kg/m3}
  836.999999999999,                       !- Specific Heat {J/kg-K}
  0.9,                                    !- Thermal Absorptance
  0.65,                                   !- Solar Absorptance
  0.65;                                   !- Visible Absorptance

OS:Material,
  {7d3d52e3-5099-4362-b717-6abeea020f43}, !- Handle
  Wall Insulation [31],                   !- Name
  MediumRough,                            !- Roughness
  0.0337000000000001,                     !- Thickness {m}
  0.0432,                                 !- Conductivity {W/m-K}
  91,                                     !- Density {kg/m3}
  836.999999999999,                       !- Specific Heat {J/kg-K}
  0.9,                                    !- Thermal Absorptance
  0.5,                                    !- Solar Absorptance
  0.5;                                    !- Visible Absorptance

OS:Construction,
  {1f6d90d2-17ae-451b-8d9b-3b2f6470154a}, !- Handle
  ASHRAE 189.1-2009 ExtWall Mass ClimateZone 2, !- Name
  ,                                       !- Surface Rendering Name
  {e8847a6d-c332-481e-910c-527ed3d6a87f}, !- Layer 1
  {4660d501-820a-4894-9eb4-5fb67e97e9ec}, !- Layer 2
  {54ea6722-fe9c-4733-8ffa-8a2281303efc}, !- Layer 3
  {3ff1574b-052d-485a-bb32-6ae622de93d6}; !- Layer 4

OS:StandardsInformation:Construction,
  {caf41879-9f90-4d3b-9695-4c88da526109}, !- Handle
  {1f6d90d2-17ae-451b-8d9b-3b2f6470154a}, !- Construction Name
  ExteriorWall,                           !- Intended Surface Type
  Mass;                                   !- Standards Construction Type

OS:Material,
  {54ea6722-fe9c-4733-8ffa-8a2281303efc}, !- Handle
  Wall Insulation [35],                   !- Name
  MediumRough,                            !- Roughness
  0.0452,                                 !- Thickness {m}
  0.0432,                                 !- Conductivity {W/m-K}
  91,                                     !- Density {kg/m3}
  836.999999999999,                       !- Specific Heat {J/kg-K}
  0.9,                                    !- Thermal Absorptance
  0.5,                                    !- Solar Absorptance
  0.5;                                    !- Visible Absorptance

OS:Construction,
  {c7f9aef0-3c33-4c27-b6e5-88ffca24f87d}, !- Handle
  ASHRAE 189.1-2009 ExtWall Mass ClimateZone 3, !- Name
  ,                                       !- Surface Rendering Name
  {e8847a6d-c332-481e-910c-527ed3d6a87f}, !- Layer 1
  {4660d501-820a-4894-9eb4-5fb67e97e9ec}, !- Layer 2
  {571fb407-24a5-46d1-915d-3a4b2246493d}, !- Layer 3
  {3ff1574b-052d-485a-bb32-6ae622de93d6}; !- Layer 4

OS:StandardsInformation:Construction,
  {3c8c52b5-8f79-42ea-bc53-875674fa1dfa}, !- Handle
  {c7f9aef0-3c33-4c27-b6e5-88ffca24f87d}, !- Construction Name
  ExteriorWall,                           !- Intended Surface Type
  Mass;                                   !- Standards Construction Type

OS:Material,
  {571fb407-24a5-46d1-915d-3a4b2246493d}, !- Handle
  Wall Insulation [36],                   !- Name
  MediumRough,                            !- Roughness
  0.0565999999999999,                     !- Thickness {m}
  0.0432,                                 !- Conductivity {W/m-K}
  91,                                     !- Density {kg/m3}
  836.999999999999,                       !- Specific Heat {J/kg-K}
  0.9,                                    !- Thermal Absorptance
  0.5,                                    !- Solar Absorptance
  0.5;                                    !- Visible Absorptance

OS:Construction,
  {4d52bf7c-ac0e-4312-aee9-2beb6c726d3e}, !- Handle
  ASHRAE 189.1-2009 ExtWall Mass ClimateZone 4, !- Name
  ,                                       !- Surface Rendering Name
  {e8847a6d-c332-481e-910c-527ed3d6a87f}, !- Layer 1
  {4660d501-820a-4894-9eb4-5fb67e97e9ec}, !- Layer 2
  {1364419a-3161-4e49-8c7d-feacc79e0545}, !- Layer 3
  {3ff1574b-052d-485a-bb32-6ae622de93d6}; !- Layer 4

OS:StandardsInformation:Construction,
  {81db7dc5-5bc8-47ae-88f9-c675acb83e31}, !- Handle
  {4d52bf7c-ac0e-4312-aee9-2beb6c726d3e}, !- Construction Name
  ExteriorWall,                           !- Intended Surface Type
  Mass;                                   !- Standards Construction Type

OS:Material,
  {1364419a-3161-4e49-8c7d-feacc79e0545}, !- Handle
  Wall Insulation [37],                   !- Name
  MediumRough,                            !- Roughness
  0.0680999999999999,                     !- Thickness {m}
  0.0432,                                 !- Conductivity {W/m-K}
  91,                                     !- Density {kg/m3}
  836.999999999999,                       !- Specific Heat {J/kg-K}
  0.9,                                    !- Thermal Absorptance
  0.5,                                    !- Solar Absorptance
  0.5;                                    !- Visible Absorptance

OS:Construction,
  {415c0de6-cae3-47b8-bf4c-32b65811f856}, !- Handle
  ASHRAE 189.1-2009 ExtWall Mass ClimateZone 5, !- Name
  ,                                       !- Surface Rendering Name
  {e8847a6d-c332-481e-910c-527ed3d6a87f}, !- Layer 1
  {4660d501-820a-4894-9eb4-5fb67e97e9ec}, !- Layer 2
  {07732dea-012e-4e94-bc0b-edb48349b3bf}, !- Layer 3
  {3ff1574b-052d-485a-bb32-6ae622de93d6}; !- Layer 4

OS:StandardsInformation:Construction,
  {e2936f5a-c836-4bac-a7b6-14311352ea3b}, !- Handle
  {415c0de6-cae3-47b8-bf4c-32b65811f856}, !- Construction Name
  ExteriorWall,                           !- Intended Surface Type
  Mass;                                   !- Standards Construction Type

OS:Material,
  {07732dea-012e-4e94-bc0b-edb48349b3bf}, !- Handle
  Wall Insulation [40],                   !- Name
  MediumRough,                            !- Roughness
  0.0793999999999999,                     !- Thickness {m}
  0.0432,                                 !- Conductivity {W/m-K}
  91,                                     !- Density {kg/m3}
  836.999999999999,                       !- Specific Heat {J/kg-K}
  0.9,                                    !- Thermal Absorptance
  0.5,                                    !- Solar Absorptance
  0.5;                                    !- Visible Absorptance

OS:Construction,
  {69aee397-a0b7-478b-a962-551b4586cbd9}, !- Handle
  ASHRAE 189.1-2009 ExtWall Mass ClimateZone 6, !- Name
  ,                                       !- Surface Rendering Name
  {e8847a6d-c332-481e-910c-527ed3d6a87f}, !- Layer 1
  {4660d501-820a-4894-9eb4-5fb67e97e9ec}, !- Layer 2
  {bba11e3f-9a14-47aa-aa1d-76a511ddb5f5}, !- Layer 3
  {3ff1574b-052d-485a-bb32-6ae622de93d6}; !- Layer 4

OS:StandardsInformation:Construction,
  {43bbdf9f-69cf-4b9e-a3c9-6d9c98c77cb4}, !- Handle
  {69aee397-a0b7-478b-a962-551b4586cbd9}, !- Construction Name
  ExteriorWall,                           !- Intended Surface Type
  Mass;                                   !- Standards Construction Type

OS:Material,
  {bba11e3f-9a14-47aa-aa1d-76a511ddb5f5}, !- Handle
  Wall Insulation [42],                   !- Name
  MediumRough,                            !- Roughness
  0.0913999999999999,                     !- Thickness {m}
  0.0432,                                 !- Conductivity {W/m-K}
  91,                                     !- Density {kg/m3}
  836.999999999999,                       !- Specific Heat {J/kg-K}
  0.9,                                    !- Thermal Absorptance
  0.5,                                    !- Solar Absorptance
  0.5;                                    !- Visible Absorptance

OS:Construction,
  {a5aacb7f-3870-4b26-8eaa-d71c7c115745}, !- Handle
  ASHRAE 189.1-2009 ExtWall Mass ClimateZone 7-8, !- Name
  ,                                       !- Surface Rendering Name
  {e8847a6d-c332-481e-910c-527ed3d6a87f}, !- Layer 1
  {4660d501-820a-4894-9eb4-5fb67e97e9ec}, !- Layer 2
  {12bbd478-2fb5-46c5-9c22-815e40f0b438}, !- Layer 3
  {3ff1574b-052d-485a-bb32-6ae622de93d6}; !- Layer 4

OS:StandardsInformation:Construction,
  {1903cc44-800e-48f4-b8a3-ebac09d1db94}, !- Handle
  {a5aacb7f-3870-4b26-8eaa-d71c7c115745}, !- Construction Name
  ExteriorWall,                           !- Intended Surface Type
  Mass;                                   !- Standards Construction Type

OS:Material,
  {12bbd478-2fb5-46c5-9c22-815e40f0b438}, !- Handle
  Wall Insulation [44],                   !- Name
  MediumRough,                            !- Roughness
  0.1104,                                 !- Thickness {m}
  0.0432,                                 !- Conductivity {W/m-K}
  91,                                     !- Density {kg/m3}
  836.999999999999,                       !- Specific Heat {J/kg-K}
  0.9,                                    !- Thermal Absorptance
  0.5,                                    !- Solar Absorptance
  0.5;                                    !- Visible Absorptance

OS:Construction,
  {751ab26c-8347-49a3-99b9-1d6b616b467d}, !- Handle
  ASHRAE 189.1-2009 ExtWall Mass ClimateZone alt-res 1, !- Name
  ,                                       !- Surface Rendering Name
  {e8847a6d-c332-481e-910c-527ed3d6a87f}, !- Layer 1
  {4660d501-820a-4894-9eb4-5fb67e97e9ec}, !- Layer 2
  {54ea6722-fe9c-4733-8ffa-8a2281303efc}, !- Layer 3
  {3ff1574b-052d-485a-bb32-6ae622de93d6}; !- Layer 4

OS:StandardsInformation:Construction,
  {ee76fb11-fddb-445b-8c49-84b607abebea}, !- Handle
  {751ab26c-8347-49a3-99b9-1d6b616b467d}, !- Construction Name
  ExteriorWall,                           !- Intended Surface Type
  Mass;                                   !- Standards Construction Type

OS:Construction,
  {96e22db3-6345-4616-a695-9d9c78fb13e2}, !- Handle
  ASHRAE 189.1-2009 ExtWall Mass ClimateZone alt-res 2, !- Name
  ,                                       !- Surface Rendering Name
  {e8847a6d-c332-481e-910c-527ed3d6a87f}, !- Layer 1
  {4660d501-820a-4894-9eb4-5fb67e97e9ec}, !- Layer 2
  {571fb407-24a5-46d1-915d-3a4b2246493d}, !- Layer 3
  {3ff1574b-052d-485a-bb32-6ae622de93d6}; !- Layer 4

OS:StandardsInformation:Construction,
  {c856f0fa-17f7-4b56-8b90-b4b4893482a6}, !- Handle
  {96e22db3-6345-4616-a695-9d9c78fb13e2}, !- Construction Name
  ExteriorWall,                           !- Intended Surface Type
  Mass;                                   !- Standards Construction Type

OS:Construction,
  {3984ee00-6520-4dff-9ecc-c932e50ac592}, !- Handle
  ASHRAE 189.1-2009 ExtWall Mass ClimateZone alt-res 3, !- Name
  ,                                       !- Surface Rendering Name
  {e8847a6d-c332-481e-910c-527ed3d6a87f}, !- Layer 1
  {4660d501-820a-4894-9eb4-5fb67e97e9ec}, !- Layer 2
  {1364419a-3161-4e49-8c7d-feacc79e0545}, !- Layer 3
  {3ff1574b-052d-485a-bb32-6ae622de93d6}; !- Layer 4

OS:StandardsInformation:Construction,
  {fd404bed-5bc4-4232-aeed-337b113f3390}, !- Handle
  {3984ee00-6520-4dff-9ecc-c932e50ac592}, !- Construction Name
  ExteriorWall,                           !- Intended Surface Type
  Mass;                                   !- Standards Construction Type

OS:Construction,
  {43e6579f-6a2d-4f88-b6f0-7a398a94daa8}, !- Handle
  ASHRAE 189.1-2009 ExtWall Mass ClimateZone alt-res 4, !- Name
  ,                                       !- Surface Rendering Name
  {e8847a6d-c332-481e-910c-527ed3d6a87f}, !- Layer 1
  {4660d501-820a-4894-9eb4-5fb67e97e9ec}, !- Layer 2
  {07732dea-012e-4e94-bc0b-edb48349b3bf}, !- Layer 3
  {3ff1574b-052d-485a-bb32-6ae622de93d6}; !- Layer 4

OS:StandardsInformation:Construction,
  {f265302d-1a28-4ffe-9393-22f198b64bfd}, !- Handle
  {43e6579f-6a2d-4f88-b6f0-7a398a94daa8}, !- Construction Name
  ExteriorWall,                           !- Intended Surface Type
  Mass;                                   !- Standards Construction Type

OS:Construction,
  {07031f28-1009-4bad-a35f-0ac636cf3833}, !- Handle
  ASHRAE 189.1-2009 ExtWall Mass ClimateZone alt-res 5, !- Name
  ,                                       !- Surface Rendering Name
  {e8847a6d-c332-481e-910c-527ed3d6a87f}, !- Layer 1
  {4660d501-820a-4894-9eb4-5fb67e97e9ec}, !- Layer 2
  {bba11e3f-9a14-47aa-aa1d-76a511ddb5f5}, !- Layer 3
  {3ff1574b-052d-485a-bb32-6ae622de93d6}; !- Layer 4

OS:StandardsInformation:Construction,
  {e432396f-c818-4230-aa6d-c2ab84a622fa}, !- Handle
  {07031f28-1009-4bad-a35f-0ac636cf3833}, !- Construction Name
  ExteriorWall,                           !- Intended Surface Type
  Mass;                                   !- Standards Construction Type

OS:Construction,
  {a9aa36b9-fe9b-4d20-b707-aeb1486496d5}, !- Handle
  ASHRAE 189.1-2009 ExtWall Mass ClimateZone alt-res 6, !- Name
  ,                                       !- Surface Rendering Name
  {e8847a6d-c332-481e-910c-527ed3d6a87f}, !- Layer 1
  {4660d501-820a-4894-9eb4-5fb67e97e9ec}, !- Layer 2
  {12bbd478-2fb5-46c5-9c22-815e40f0b438}, !- Layer 3
  {3ff1574b-052d-485a-bb32-6ae622de93d6}; !- Layer 4

OS:StandardsInformation:Construction,
  {f48779ae-cc10-46e8-b90b-1c57dcd6454d}, !- Handle
  {a9aa36b9-fe9b-4d20-b707-aeb1486496d5}, !- Construction Name
  ExteriorWall,                           !- Intended Surface Type
  Mass;                                   !- Standards Construction Type

OS:Construction,
  {bec39d49-2db4-401e-9b69-5aaaa42449d9}, !- Handle
  ASHRAE 189.1-2009 ExtWall Mass ClimateZone alt-res 7, !- Name
  ,                                       !- Surface Rendering Name
  {e8847a6d-c332-481e-910c-527ed3d6a87f}, !- Layer 1
  {4660d501-820a-4894-9eb4-5fb67e97e9ec}, !- Layer 2
  {12bbd478-2fb5-46c5-9c22-815e40f0b438}, !- Layer 3
  {3ff1574b-052d-485a-bb32-6ae622de93d6}; !- Layer 4

OS:StandardsInformation:Construction,
  {3f70df87-15f0-4e5d-a012-db7373e4b91d}, !- Handle
  {bec39d49-2db4-401e-9b69-5aaaa42449d9}, !- Construction Name
  ExteriorWall,                           !- Intended Surface Type
  Mass;                                   !- Standards Construction Type

OS:Construction,
  {b5050330-795f-4191-80da-34f2e5c78e5b}, !- Handle
  ASHRAE 189.1-2009 ExtWall Mass ClimateZone alt-res 8, !- Name