
OS:Version,
  {0362f8c8-31e2-4847-9e90-c2f5be5adf6f}, !- Handle
  1.3.0;                                  !- Version Identifier

OS:Construction,
  {8169cf09-7b0d-4525-977e-1b7a46711ddf}, !- Handle
  ASHRAE 189.1-2009 AtticFloor ClimateZone 1-8, !- Name
  ,                                       !- Surface Rendering Name
  {44f4dcd5-2ae6-466d-9dcb-9fb27d4eb6dc}, !- Layer 1
  {040bc86e-5661-48f5-9e4d-ac93fc5bc4f3}, !- Layer 2
  {44f4dcd5-2ae6-466d-9dcb-9fb27d4eb6dc}; !- Layer 3

OS:StandardsInformation:Construction,
  {df41a216-5320-49b0-8cf7-22073493fa34}, !- Handle
  {8169cf09-7b0d-4525-977e-1b7a46711ddf}, !- Construction Name
  AtticFloor,                             !- Intended Surface Type
  WoodFramed;                             !- Standards Construction Type

OS:Material,
  {44f4dcd5-2ae6-466d-9dcb-9fb27d4eb6dc}, !- Handle
  1/2IN Gypsum,                           !- Name
  Smooth,                                 !- Roughness
  0.0127,                                 !- Thickness {m}
  0.16,                                   !- Conductivity {W/m-K}
  784.9,                                  !- Density {kg/m3}
  830.000000000001,                       !- Specific Heat {J/kg-K}
  0.9,                                    !- Thermal Absorptance
  0.92,                                   !- Solar Absorptance
  0.92;                                   !- Visible Absorptance

OS:Material,
  {040bc86e-5661-48f5-9e4d-ac93fc5bc4f3}, !- Handle
  AtticFloor Insulation,                  !- Name
  MediumRough,                            !- Roughness
  0.2379,                                 !- Thickness {m}
  0.049,                                  !- Conductivity {W/m-K}
  265,                                    !- Density {kg/m3}
  836.800000000001,                       !- Specific Heat {J/kg-K}
  0.9,                                    !- Thermal Absorptance
  0.7,                                    !- Solar Absorptance
  0.7;                                    !- Visible Absorptance

OS:Construction,
  {b1ceef1f-7acb-443c-9a81-3676fb07d3d1}, !- Handle
  ASHRAE 189.1-2009 ExtRoof IEAD ClimateZone 1, !- Name
  ,                                       !- Surface Rendering Name
  {e62d2b0a-8818-493f-8685-8a49316059e3}, !- Layer 1
  {de05b0f8-b388-4fa1-b024-824e2b08afdf}, !- Layer 2
  {9150bf99-17a6-4e97-a90a-a020c331a16c}; !- Layer 3

OS:StandardsInformation:Construction,
  {98633a24-1450-443f-89dc-8e30369b29c9}, !- Handle
  {b1ceef1f-7acb-443c-9a81-3676fb07d3d1}, !- Construction Name
  ExteriorRoof,                           !- Intended Surface Type
  IEAD;                                   !- Standards Construction Type

OS:Material,
  {e62d2b0a-8818-493f-8685-8a49316059e3}, !- Handle
  Roof Membrane,                          !- Name
  VeryRough,                              !- Roughness
  0.0095,                                 !- Thickness {m}
  0.16,                                   !- Conductivity {W/m-K}
  1121.29,                                !- Density {kg/m3}
  1460,                                   !- Specific Heat {J/kg-K}
  0.9,                                    !- Thermal Absorptance
  0.7,                                    !- Solar Absorptance
  0.7;                                    !- Visible Absorptance

OS:Material,
  {de05b0f8-b388-4fa1-b024-824e2b08afdf}, !- Handle
  Roof Insulation [18],                   !- Name
  MediumRough,                            !- Roughness
  0.1693,                                 !- Thickness {m}
  0.049,                                  !- Conductivity {W/m-K}
  265,                                    !- Density {kg/m3}
  836.800000000001,                       !- Specific Heat {J/kg-K}
  0.9,                                    !- Thermal Absorptance
  0.7,                                    !- Solar Absorptance
  0.7;                                    !- Visible Absorptance

OS:Material,
  {9150bf99-17a6-4e97-a90a-a020c331a16c}, !- Handle
  Metal Decking,                          !- Name
  MediumSmooth,                           !- Roughness
  0.0015,                                 !- Thickness {m}
  45.006,                                 !- Conductivity {W/m-K}
  7680,                                   !- Density {kg/m3}
  418.4,                                  !- Specific Heat {J/kg-K}
  0.9,                                    !- Thermal Absorptance
  0.7,                                    !- Solar Absorptance
  0.3;                                    !- Visible Absorptance

OS:Construction,
  {9059c20d-c5e6-4457-a07d-fb99bb2666e2}, !- Handle
  ASHRAE 189.1-2009 ExtRoof IEAD ClimateZone 2-5, !- Name
  ,                                       !- Surface Rendering Name
  {e62d2b0a-8818-493f-8685-8a49316059e3}, !- Layer 1
  {0e03eafc-b271-48b9-8ce4-979cc5a53788}, !- Layer 2
  {9150bf99-17a6-4e97-a90a-a020c331a16c}; !- Layer 3

OS:StandardsInformation:Construction,
  {0ce72667-3f78-403f-8aab-4a510c857c3b}, !- Handle
  {9059c20d-c5e6-4457-a07d-fb99bb2666e2}, !- Construction Name
  ExteriorRoof,                           !- Intended Surface Type
  IEAD;                                   !- Standards Construction Type

OS:Material,
  {0e03eafc-b271-48b9-8ce4-979cc5a53788}, !- Handle
  Roof Insulation [21],                   !- Name
  MediumRough,                            !- Roughness
  0.2105,                                 !- Thickness {m}
  0.049,                                  !- Conductivity {W/m-K}
  265,                                    !- Density {kg/m3}
  836.800000000001,                       !- Specific Heat {J/kg-K}
  0.9,                                    !- Thermal Absorptance
  0.7,                                    !- Solar Absorptance
  0.7;                                    !- Visible Absorptance

OS:Construction,
  {b8ef6b04-7a65-435b-8d24-d9170e09d501}, !- Handle
  ASHRAE 189.1-2009 ExtRoof IEAD ClimateZone 6, !- Name
  ,                                       !- Surface Rendering Name
  {e62d2b0a-8818-493f-8685-8a49316059e3}, !- Layer 1
  {f8bddcf0-dd27-4868-a255-cde2ae082079}, !- Layer 2
  {9150bf99-17a6-4e97-a90a-a020c331a16c}; !- Layer 3

OS:StandardsInformation:Construction,
  {bb23f51a-901d-456f-b149-6f87a93e340f}, !- Handle
  {b8ef6b04-7a65-435b-8d24-d9170e09d501}, !- Construction Name
  ExteriorRoof,                           !- Intended Surface Type
  IEAD;                                   !- Standards Construction Type

OS:Material,
  {f8bddcf0-dd27-4868-a255-cde2ae082079}, !- Handle
  Roof Insulation [24],                   !- Name
  MediumRough,                            !- Roughness
  0.260100000000001,                      !- Thickness {m}
  0.049,                                  !- Conductivity {W/m-K}
  265,                                    !- Density {kg/m3}
  836.800000000001,                       !- Specific Heat {J/kg-K}
  0.9,                                    !- Thermal Absorptance
  0.7,                                    !- Solar Absorptance
  0.7;                                    !- Visible Absorptance

OS:Construction,
  {1584bec0-ffdc-44a2-bf4e-2a8fb3ef0f83}, !- Handle
  ASHRAE 189.1-2009 ExtRoof IEAD ClimateZone 7-8, !- Name
  ,                                       !- Surface Rendering Name
  {e62d2b0a-8818-493f-8685-8a49316059e3}, !- Layer 1
  {d6793fd9-b887-4d61-b418-b067e126c861}, !- Layer 2
  {9150bf99-17a6-4e97-a90a-a020c331a16c}; !- Layer 3

OS:StandardsInformation:Construction,
  {3f076189-c8ef-4af7-9da5-01fcc8f7438e}, !- Handle
  {1584bec0-ffdc-44a2-bf4e-2a8fb3ef0f83}, !- Construction Name
  ExteriorRoof,                           !- Intended Surface Type
  IEAD;                                   !- Standards Construction Type

OS:Material,
  {d6793fd9-b887-4d61-b418-b067e126c861}, !- Handle
  Roof Insulation [26],                   !- Name
  MediumRough,                            !- Roughness
  0.2941,                                 !- Thickness {m}
  0.049,                                  !- Conductivity {W/m-K}
  265,                                    !- Density {kg/m3}
  836.800000000001,                       !- Specific Heat {J/kg-K}
  0.9,                                    !- Thermal Absorptance
  0.7,                                    !- Solar Absorptance
  0.7;                                    !- Visible Absorptance

OS:Construction,
  {ba587caa-902f-464d-8e84-031771a67c62}, !- Handle
  ASHRAE 189.1-2009 ExtRoof Metal ClimateZone 1, !- Name
  ,                                       !- Surface Rendering Name
  {89ce0b9a-bc92-4d2c-a51a-216dbca22504}, !- Layer 1
  {55a739be-c14a-4c3b-9aa1-e951523eeb78}; !- Layer 2

OS:StandardsInformation:Construction,
  {2b391d32-7148-47eb-9990-4c63243549c6}, !- Handle
  {ba587caa-902f-464d-8e84-031771a67c62}, !- Construction Name
  ExteriorRoof,                           !- Intended Surface Type
  Metal;                                  !- Standards Construction Type

OS:Material,
  {89ce0b9a-bc92-4d2c-a51a-216dbca22504}, !- Handle
  Metal Roofing,                          !- Name
  MediumSmooth,                           !- Roughness
  0.0015,                                 !- Thickness {m}
  45.006,                                 !- Conductivity {W/m-K}
  7680,                                   !- Density {kg/m3}
  418.4,                                  !- Specific Heat {J/kg-K}
  0.9,                                    !- Thermal Absorptance
  0.3,                                    !- Solar Absorptance
  0.3;                                    !- Visible Absorptance

OS:Material,
  {55a739be-c14a-4c3b-9aa1-e951523eeb78}, !- Handle
  Roof Insulation [19],                   !- Name
  MediumRough,                            !- Roughness
  0.1868,                                 !- Thickness {m}
  0.049,                                  !- Conductivity {W/m-K}
  265,                                    !- Density {kg/m3}
  836.800000000001,                       !- Specific Heat {J/kg-K}
  0.9,                                    !- Thermal Absorptance
  0.7,                                    !- Solar Absorptance
  0.7;                                    !- Visible Absorptance

OS:Construction,
  {ae0dda8c-3c55-4be5-bc81-cd1b34caff8e}, !- Handle
  ASHRAE 189.1-2009 ExtRoof Metal ClimateZone 2-5, !- Name
  ,                                       !- Surface Rendering Name
  {89ce0b9a-bc92-4d2c-a51a-216dbca22504}, !- Layer 1
  {cf32821b-24e9-4174-bcde-7b4ef9cb06d9}; !- Layer 2

OS:StandardsInformation:Construction,
  {ff0ccd69-8b8d-4d64-927b-dc37f006676a}, !- Handle
  {ae0dda8c-3c55-4be5-bc81-cd1b34caff8e}, !- Construction Name
  ExteriorRoof,                           !- Intended Surface Type
  Metal;                                  !- Standards Construction Type

OS:Material,
  {cf32821b-24e9-4174-bcde-7b4ef9cb06d9}, !- Handle
  Roof Insulation [22],                   !- Name
  MediumRough,                            !- Roughness
  0.2358,                                 !- Thickness {m}
  0.049,                                  !- Conductivity {W/m-K}
  265,                                    !- Density {kg/m3}
  836.800000000001,                       !- Specific Heat {J/kg-K}
  0.9,                                    !- Thermal Absorptance
  0.7,                                    !- Solar Absorptance
  0.7;                                    !- Visible Absorptance

OS:Construction,
  {66a98d87-ab9d-4119-8193-6c3dc4766716}, !- Handle
  ASHRAE 189.1-2009 ExtRoof Metal ClimateZone 6, !- Name
  ,                                       !- Surface Rendering Name
  {89ce0b9a-bc92-4d2c-a51a-216dbca22504}, !- Layer 1
  {e1cbc7ba-6f14-4a96-ba90-9ce2f3cb2d9b}; !- Layer 2

OS:StandardsInformation:Construction,
  {7180d2c5-400b-4121-9976-fda3f9a77e68}, !- Handle
  {66a98d87-ab9d-4119-8193-6c3dc4766716}, !- Construction Name
  ExteriorRoof,                           !- Intended Surface Type
  Metal;                                  !- Standards Construction Type

OS:Material,
  {e1cbc7ba-6f14-4a96-ba90-9ce2f3cb2d9b}, !- Handle
  Roof Insulation [25],                   !- Name
  MediumRough,                            !- Roughness
  0.263,                                  !- Thickness {m}
  0.049,                                  !- Conductivity {W/m-K}
  265,                                    !- Density {kg/m3}
  836.800000000001,                       !- Specific Heat {J/kg-K}
  0.9,                                    !- Thermal Absorptance
  0.7,                                    !- Solar Absorptance
  0.7;                                    !- Visible Absorptance

OS:Construction,
  {7ad6b2ed-bf97-4785-8016-1e0d0594cc02}, !- Handle
  ASHRAE 189.1-2009 ExtRoof Metal ClimateZone 7-8, !- Name
  ,                                       !- Surface Rendering Name
  {89ce0b9a-bc92-4d2c-a51a-216dbca22504}, !- Layer 1
  {a80d9d61-aea2-491f-a6de-8c89e13168d4}; !- Layer 2

OS:StandardsInformation:Construction,
  {9514dc30-5df7-4f90-a2ba-d858dc25af8a}, !- Handle
  {7ad6b2ed-bf97-4785-8016-1e0d0594cc02}, !- Construction Name
  ExteriorRoof,                           !- Intended Surface Type
  Metal;                                  !- Standards Construction Type

OS:Material,
  {a80d9d61-aea2-491f-a6de-8c89e13168d4}, !- Handle
  Roof Insulation [27],                   !- Name
  MediumRough,                            !- Roughness
  0.297000000000001,                      !- Thickness {m}
  0.049,                                  !- Conductivity {W/m-K}
  265,                                    !- Density {kg/m3}
  836.800000000001,                       !- Specific Heat {J/kg-K}
  0.9,                                    !- Thermal Absorptance
  0.7,                                    !- Solar Absorptance
  0.7;                                    !- Visible Absorptance

OS:Construction,
  {5a8848ec-da68-4069-9db7-030f15e3ebf3}, !- Handle
  ASHRAE 189.1-2009 ExtWall Mass ClimateZone 1, !- Name
  ,                                       !- Surface Rendering Name
  {a9af0b33-39ce-4df3-b7da-ef3faf781ea6}, !- Layer 1
  {df1f460e-1cb0-4433-be03-5886f65a1b72}, !- Layer 2
  {f07f2fbc-89fc-4dca-a540-9b2546724e11}, !- Layer 3
  {44f4dcd5-2ae6-466d-9dcb-9fb27d4eb6dc}; !- Layer 4

OS:StandardsInformation:Construction,
  {cbf49ee7-6508-4bb0-aa29-bc84e6238f17}, !- Handle
  {5a8848ec-da68-4069-9db7-030f15e3ebf3}, !- Construction Name
  ExteriorWall,                           !- Intended Surface Type
  Mass;                                   !- Standards Construction Type

OS:Material,
  {a9af0b33-39ce-4df3-b7da-ef3faf781ea6}, !- Handle
  1IN Stucco,                             !- Name
  Smooth,                                 !- Roughness
  0.0253,                                 !- Thickness {m}
  0.691799999999999,                      !- Conductivity {W/m-K}
  1858,                                   !- Density {kg/m3}
  836.999999999999,                       !- Specific Heat {J/kg-K}
  0.9,                                    !- Thermal Absorptance
  0.92,                                   !- Solar Absorptance
  0.92;                                   !- Visible Absorptance

OS:Material,
  {df1f460e-1cb0-4433-be03-5886f65a1b72}, !- Handle
  8IN Concrete HW,                        !- Name
  MediumRough,                            !- Roughness
  0.2033,                                 !- Thickness {m}
  1.72959999999999,                       !- Conductivity {W/m-K}
  2242.99999999999,                       !- Density {kg/m3}
  836.999999999999,                       !- Specific Heat {J/kg-K}
  0.9,                                    !- Thermal Absorptance
  0.65,                                   !- Solar Absorptance
  0.65;                                   !- Visible Absorptance

OS:Material,
  {f07f2fbc-89fc-4dca-a540-9b2546724e11}, !- Handle
  Wall Insulation [31],                   !- Name
  MediumRough,                            !- Roughness
  0.0337000000000001,                     !- Thickness {m}
  0.0432,                                 !- Conductivity {W/m-K}
  91,                                     !- Density {kg/m3}
  836.999999999999,                       !- Specific Heat {J/kg-K}
  0.9,                                    !- Thermal Absorptance
  0.5,                                    !- Solar Absorptance
  0.5;                                    !- Visible Absorptance

OS:Construction,
  {0f278b08-95b1-48fe-a408-258250abf8f2}, !- Handle
  ASHRAE 189.1-2009 ExtWall Mass ClimateZone 2, !- Name
  ,                                       !- Surface Rendering Name
  {a9af0b33-39ce-4df3-b7da-ef3faf781ea6}, !- Layer 1
  {df1f460e-1cb0-4433-be03-5886f65a1b72}, !- Layer 2
  {6d270fd2-d0ca-4749-bc31-1abc924fac04}, !- Layer 3
  {44f4dcd5-2ae6-466d-9dcb-9fb27d4eb6dc}; !- Layer 4

OS:StandardsInformation:Construction,
  {883dc219-48ff-4b8f-96fc-623ceb76fd24}, !- Handle
  {0f278b08-95b1-48fe-a408-258250abf8f2}, !- Construction Name
  ExteriorWall,                           !- Intended Surface Type
  Mass;                                   !- Standards Construction Type

OS:Material,
  {6d270fd2-d0ca-4749-bc31-1abc924fac04}, !- Handle
  Wall Insulation [35],                   !- Name
  MediumRough,                            !- Roughness
  0.0452,                                 !- Thickness {m}
  0.0432,                                 !- Conductivity {W/m-K}
  91,                                     !- Density {kg/m3}
  836.999999999999,                       !- Specific Heat {J/kg-K}
  0.9,                                    !- Thermal Absorptance
  0.5,                                    !- Solar Absorptance
  0.5;                                    !- Visible Absorptance

OS:Construction,
  {b1e5ef8b-e99c-4332-a4b9-c903974ac8e5}, !- Handle
  ASHRAE 189.1-2009 ExtWall Mass ClimateZone 3, !- Name
  ,                                       !- Surface Rendering Name
  {a9af0b33-39ce-4df3-b7da-ef3faf781ea6}, !- Layer 1
  {df1f460e-1cb0-4433-be03-5886f65a1b72}, !- Layer 2
  {b5483edc-8c80-4618-9cb8-51594dcdede8}, !- Layer 3
  {44f4dcd5-2ae6-466d-9dcb-9fb27d4eb6dc}; !- Layer 4

OS:StandardsInformation:Construction,
  {a955ed19-3f00-4eb8-a3a2-6ad95b99362b}, !- Handle
  {b1e5ef8b-e99c-4332-a4b9-c903974ac8e5}, !- Construction Name
  ExteriorWall,                           !- Intended Surface Type
  Mass;                                   !- Standards Construction Type

OS:Material,
  {b5483edc-8c80-4618-9cb8-51594dcdede8}, !- Handle
  Wall Insulation [36],                   !- Name
  MediumRough,                            !- Roughness
  0.0565999999999999,                     !- Thickness {m}
  0.0432,                                 !- Conductivity {W/m-K}
  91,                                     !- Density {kg/m3}
  836.999999999999,                       !- Specific Heat {J/kg-K}
  0.9,                                    !- Thermal Absorptance
  0.5,                                    !- Solar Absorptance
  0.5;                                    !- Visible Absorptance

OS:Construction,
  {1917a758-b69f-4c5c-906a-7c883dcc69a9}, !- Handle
  ASHRAE 189.1-2009 ExtWall Mass ClimateZone 4, !- Name
  ,                                       !- Surface Rendering Name
  {a9af0b33-39ce-4df3-b7da-ef3faf781ea6}, !- Layer 1
  {df1f460e-1cb0-4433-be03-5886f65a1b72}, !- Layer 2
  {2151ff7e-6b26-4347-995a-3647b84fd1fe}, !- Layer 3
  {44f4dcd5-2ae6-466d-9dcb-9fb27d4eb6dc}; !- Layer 4

OS:StandardsInformation:Construction,
  {b3919840-d8f4-42cc-ab46-4fb5d4459ec7}, !- Handle
  {1917a758-b69f-4c5c-906a-7c883dcc69a9}, !- Construction Name
  ExteriorWall,                           !- Intended Surface Type
  Mass;                                   !- Standards Construction Type

OS:Material,
  {2151ff7e-6b26-4347-995a-3647b84fd1fe}, !- Handle
  Wall Insulation [37],                   !- Name
  MediumRough,                            !- Roughness
  0.0680999999999999,                     !- Thickness {m}
  0.0432,                                 !- Conductivity {W/m-K}
  91,                                     !- Density {kg/m3}
  836.999999999999,                       !- Specific Heat {J/kg-K}
  0.9,                                    !- Thermal Absorptance
  0.5,                                    !- Solar Absorptance
  0.5;                                    !- Visible Absorptance

OS:Construction,
  {e1c044ec-3718-49ee-8d2d-e1a3a3047b3c}, !- Handle
  ASHRAE 189.1-2009 ExtWall Mass ClimateZone 5, !- Name
  ,                                       !- Surface Rendering Name
  {a9af0b33-39ce-4df3-b7da-ef3faf781ea6}, !- Layer 1
  {df1f460e-1cb0-4433-be03-5886f65a1b72}, !- Layer 2
  {357bd6a6-fcb6-4e6f-ac4d-4074d0bf87ef}, !- Layer 3
  {44f4dcd5-2ae6-466d-9dcb-9fb27d4eb6dc}; !- Layer 4

OS:StandardsInformation:Construction,
  {29861ca2-54f6-4421-ae33-5d8fdc2daf04}, !- Handle
  {e1c044ec-3718-49ee-8d2d-e1a3a3047b3c}, !- Construction Name
  ExteriorWall,                           !- Intended Surface Type
  Mass;                                   !- Standards Construction Type

OS:Material,
  {357bd6a6-fcb6-4e6f-ac4d-4074d0bf87ef}, !- Handle
  Wall Insulation [40],                   !- Name
  MediumRough,                            !- Roughness
  0.0793999999999999,                     !- Thickness {m}
  0.0432,                                 !- Conductivity {W/m-K}
  91,                                     !- Density {kg/m3}
  836.999999999999,                       !- Specific Heat {J/kg-K}
  0.9,                                    !- Thermal Absorptance
  0.5,                                    !- Solar Absorptance
  0.5;                                    !- Visible Absorptance

OS:Construction,
  {ae3318ab-c772-41a8-a91a-81fa495c1609}, !- Handle
  ASHRAE 189.1-2009 ExtWall Mass ClimateZone 6, !- Name
  ,                                       !- Surface Rendering Name
  {a9af0b33-39ce-4df3-b7da-ef3faf781ea6}, !- Layer 1
  {df1f460e-1cb0-4433-be03-5886f65a1b72}, !- Layer 2
  {4b71ca65-ac5f-444e-a1fb-1b15c695fa1e}, !- Layer 3
  {44f4dcd5-2ae6-466d-9dcb-9fb27d4eb6dc}; !- Layer 4

OS:StandardsInformation:Construction,
  {7c55f9fa-5c6a-4e30-b8d9-d7602f57e065}, !- Handle
  {ae3318ab-c772-41a8-a91a-81fa495c1609}, !- Construction Name
  ExteriorWall,                           !- Intended Surface Type
  Mass;                                   !- Standards Construction Type

OS:Material,
  {4b71ca65-ac5f-444e-a1fb-1b15c695fa1e}, !- Handle
  Wall Insulation [42],                   !- Name
  MediumRough,                            !- Roughness
  0.0913999999999999,                     !- Thickness {m}
  0.0432,                                 !- Conductivity {W/m-K}
  91,                                     !- Density {kg/m3}
  836.999999999999,                       !- Specific Heat {J/kg-K}
  0.9,                                    !- Thermal Absorptance
  0.5,                                    !- Solar Absorptance
  0.5;                                    !- Visible Absorptance

OS:Construction,
  {bfc4dc1f-086a-4132-8145-cd0813c02d79}, !- Handle
  ASHRAE 189.1-2009 ExtWall Mass ClimateZone 7-8, !- Name
  ,                                       !- Surface Rendering Name
  {a9af0b33-39ce-4df3-b7da-ef3faf781ea6}, !- Layer 1
  {df1f460e-1cb0-4433-be03-5886f65a1b72}, !- Layer 2
  {94306c03-07ee-4749-b101-bea7db917f80}, !- Layer 3
  {44f4dcd5-2ae6-466d-9dcb-9fb27d4eb6dc}; !- Layer 4

OS:StandardsInformation:Construction,
  {11782452-335a-4f79-b87d-e2828d79a0c2}, !- Handle
  {bfc4dc1f-086a-4132-8145-cd0813c02d79}, !- Construction Name
  ExteriorWall,                           !- Intended Surface Type
  Mass;                                   !- Standards Construction Type

OS:Material,
  {94306c03-07ee-4749-b101-bea7db917f80}, !- Handle
  Wall Insulation [44],                   !- Name
  MediumRough,                            !- Roughness
  0.1104,                                 !- Thickness {m}
  0.0432,                                 !- Conductivity {W/m-K}
  91,                                     !- Density {kg/m3}
  836.999999999999,                       !- Specific Heat {J/kg-K}
  0.9,                                    !- Thermal Absorptance
  0.5,                                    !- Solar Absorptance
  0.5;                                    !- Visible Absorptance

OS:Construction,
  {fee211d6-2cbb-4202-ace9-ad3aea44b583}, !- Handle
  ASHRAE 189.1-2009 ExtWall Mass ClimateZone alt-res 1, !- Name
  ,                                       !- Surface Rendering Name
  {a9af0b33-39ce-4df3-b7da-ef3faf781ea6}, !- Layer 1
  {df1f460e-1cb0-4433-be03-5886f65a1b72}, !- Layer 2
  {6d270fd2-d0ca-4749-bc31-1abc924fac04}, !- Layer 3
  {44f4dcd5-2ae6-466d-9dcb-9fb27d4eb6dc}; !- Layer 4

OS:StandardsInformation:Construction,
  {cb40c8f9-46c5-4c3e-bad1-5b427368c5ee}, !- Handle
  {fee211d6-2cbb-4202-ace9-ad3aea44b583}, !- Construction Name
  ExteriorWall,                           !- Intended Surface Type
  Mass;                                   !- Standards Construction Type

OS:Construction,
  {f575d20f-ae63-4b46-9f0c-547a39210ee6}, !- Handle
  ASHRAE 189.1-2009 ExtWall Mass ClimateZone alt-res 2, !- Name
  ,                                       !- Surface Rendering Name
  {a9af0b33-39ce-4df3-b7da-ef3faf781ea6}, !- Layer 1
  {df1f460e-1cb0-4433-be03-5886f65a1b72}, !- Layer 2
  {b5483edc-8c80-4618-9cb8-51594dcdede8}, !- Layer 3
  {44f4dcd5-2ae6-466d-9dcb-9fb27d4eb6dc}; !- Layer 4

OS:StandardsInformation:Construction,
  {a1515dd4-30d0-4da1-bb1f-71f212198b10}, !- Handle
  {f575d20f-ae63-4b46-9f0c-547a39210ee6}, !- Construction Name
  ExteriorWall,                           !- Intended Surface Type
  Mass;                                   !- Standards Construction Type

OS:Construction,
  {24d98753-b233-4e9b-b86c-06306003dbed}, !- Handle
  ASHRAE 189.1-2009 ExtWall Mass ClimateZone alt-res 3, !- Name
  ,                                       !- Surface Rendering Name
  {a9af0b33-39ce-4df3-b7da-ef3faf781ea6}, !- Layer 1
  {df1f460e-1cb0-4433-be03-5886f65a1b72}, !- Layer 2
  {2151ff7e-6b26-4347-995a-3647b84fd1fe}, !- Layer 3
  {44f4dcd5-2ae6-466d-9dcb-9fb27d4eb6dc}; !- Layer 4

OS:StandardsInformation:Construction,
  {11c93f6d-73a5-4bb4-b254-c8c5f499018b}, !- Handle
  {24d98753-b233-4e9b-b86c-06306003dbed}, !- Construction Name
  ExteriorWall,                           !- Intended Surface Type
  Mass;                                   !- Standards Construction Type

OS:Construction,
  {e7db2bea-1dfc-48fe-806c-ce5d351c0f7a}, !- Handle
  ASHRAE 189.1-2009 ExtWall Mass ClimateZone alt-res 4, !- Name
  ,                                       !- Surface Rendering Name
  {a9af0b33-39ce-4df3-b7da-ef3faf781ea6}, !- Layer 1
  {df1f460e-1cb0-4433-be03-5886f65a1b72}, !- Layer 2
  {357bd6a6-fcb6-4e6f-ac4d-4074d0bf87ef}, !- Layer 3
  {44f4dcd5-2ae6-466d-9dcb-9fb27d4eb6dc}; !- Layer 4

OS:StandardsInformation:Construction,
  {a8cf579c-4675-4076-9f03-84b82de14e43}, !- Handle
  {e7db2bea-1dfc-48fe-806c-ce5d351c0f7a}, !- Construction Name
  ExteriorWall,                           !- Intended Surface Type
  Mass;                                   !- Standards Construction Type

OS:Construction,
  {faf60f34-84d7-492c-b851-a0c06edbbec3}, !- Handle
  ASHRAE 189.1-2009 ExtWall Mass ClimateZone alt-res 5, !- Name
  ,                                       !- Surface Rendering Name
  {a9af0b33-39ce-4df3-b7da-ef3faf781ea6}, !- Layer 1
  {df1f460e-1cb0-4433-be03-5886f65a1b72}, !- Layer 2
  {4b71ca65-ac5f-444e-a1fb-1b15c695fa1e}, !- Layer 3
  {44f4dcd5-2ae6-466d-9dcb-9fb27d4eb6dc}; !- Layer 4

OS:StandardsInformation:Construction,
  {73e24e95-0bee-4fec-879b-371ecac1dbd4}, !- Handle
  {faf60f34-84d7-492c-b851-a0c06edbbec3}, !- Construction Name
  ExteriorWall,                           !- Intended Surface Type
  Mass;                                   !- Standards Construction Type

OS:Construction,
  {f014e27f-d2cd-4c3f-ab56-2edd2f04a5f5}, !- Handle
  ASHRAE 189.1-2009 ExtWall Mass ClimateZone alt-res 6, !- Name
  ,                                       !- Surface Rendering Name
  {a9af0b33-39ce-4df3-b7da-ef3faf781ea6}, !- Layer 1
  {df1f460e-1cb0-4433-be03-5886f65a1b72}, !- Layer 2
  {94306c03-07ee-4749-b101-bea7db917f80}, !- Layer 3
  {44f4dcd5-2ae6-466d-9dcb-9fb27d4eb6dc}; !- Layer 4

OS:StandardsInformation:Construction,
  {5901b0dd-4a22-44a6-9a4a-af3aa23e2f32}, !- Handle
  {f014e27f-d2cd-4c3f-ab56-2edd2f04a5f5}, !- Construction Name
  ExteriorWall,                           !- Intended Surface Type
  Mass;                                   !- Standards Construction Type

OS:Construction,
  {f5de68be-8b65-4fd1-b5e7-f80ab69bc2bc}, !- Handle
  ASHRAE 189.1-2009 ExtWall Mass ClimateZone alt-res 7, !- Name
  ,                                       !- Surface Rendering Name
  {a9af0b33-39ce-4df3-b7da-ef3faf781ea6}, !- Layer 1
  {df1f460e-1cb0-4433-be03-5886f65a1b72}, !- Layer 2
  {94306c03-07ee-4749-b101-bea7db917f80}, !- Layer 3
  {44f4dcd5-2ae6-466d-9dcb-9fb27d4eb6dc}; !- Layer 4

OS:StandardsInformation:Construction,
  {d99f21a6-47a3-4e4d-a6bb-4bc221afe1b3}, !- Handle
  {f5de68be-8b65-4fd1-b5e7-f80ab69bc2bc}, !- Construction Name
  ExteriorWall,                           !- Intended Surface Type
  Mass;                                   !- Standards Construction Type

OS:Construction,
  {665d2920-db33-40f0-873c-ebbb68ca4739}, !- Handle
  ASHRAE 189.1-2009 ExtWall Mass ClimateZone alt-res 8, !- Name