
OS:Version,
  {6fdea88a-e2e7-4c0d-bea1-8b356c722631}, !- Handle
  1.2.3;                                  !- Version Identifier

OS:Construction,
  {14741f84-1053-4976-8d6e-fb8d93450df4}, !- Handle
  ASHRAE 189.1-2009 AtticFloor ClimateZone 1-8, !- Name
  ,                                       !- Surface Rendering Name
  {0e5e37d5-8b36-4542-af9f-3b0561e89e8d}, !- Layer 1
  {09830260-1cc0-4d03-8b89-323683ae8c06}, !- Layer 2
  {0e5e37d5-8b36-4542-af9f-3b0561e89e8d}; !- Layer 3

OS:StandardsInformation:Construction,
  {b259312e-bd2d-495d-8298-34e82fbd69dc}, !- Handle
  {14741f84-1053-4976-8d6e-fb8d93450df4}, !- Construction Name
  AtticFloor,                             !- Intended Surface Type
  WoodFramed;                             !- Standards Construction Type

OS:Material,
  {0e5e37d5-8b36-4542-af9f-3b0561e89e8d}, !- Handle
  1/2IN Gypsum,                           !- Name
  Smooth,                                 !- Roughness
  0.0127,                                 !- Thickness {m}
  0.16,                                   !- Conductivity {W/m-K}
  784.9,                                  !- Density {kg/m3}
  830.000000000001,                       !- Specific Heat {J/kg-K}
  0.9,                                    !- Thermal Absorptance
  0.92,                                   !- Solar Absorptance
  0.92;                                   !- Visible Absorptance

OS:Material,
  {09830260-1cc0-4d03-8b89-323683ae8c06}, !- Handle
  AtticFloor Insulation,                  !- Name
  MediumRough,                            !- Roughness
  0.2379,                                 !- Thickness {m}
  0.049,                                  !- Conductivity {W/m-K}
  265,                                    !- Density {kg/m3}
  836.800000000001,                       !- Specific Heat {J/kg-K}
  0.9,                                    !- Thermal Absorptance
  0.7,                                    !- Solar Absorptance
  0.7;                                    !- Visible Absorptance

OS:Construction,
  {e86e6c2c-cc24-49cf-a625-ed91344e0ec1}, !- Handle
  ASHRAE 189.1-2009 ExtRoof IEAD ClimateZone 1, !- Name
  ,                                       !- Surface Rendering Name
  {e1c401d9-bd02-481a-ad6c-bcdd017dbb8a}, !- Layer 1
  {a1008c4f-9740-4dda-9764-5ca764372809}, !- Layer 2
  {f96994cd-dabe-417d-aa43-142a069937ac}; !- Layer 3

OS:StandardsInformation:Construction,
  {feff9a96-13a4-4d4f-b8f9-e187ce4d238b}, !- Handle
  {e86e6c2c-cc24-49cf-a625-ed91344e0ec1}, !- Construction Name
  ExteriorRoof,                           !- Intended Surface Type
  IEAD;                                   !- Standards Construction Type

OS:Material,
  {e1c401d9-bd02-481a-ad6c-bcdd017dbb8a}, !- Handle
  Roof Membrane,                          !- Name
  VeryRough,                              !- Roughness
  0.0095,                                 !- Thickness {m}
  0.16,                                   !- Conductivity {W/m-K}
  1121.29,                                !- Density {kg/m3}
  1460,                                   !- Specific Heat {J/kg-K}
  0.9,                                    !- Thermal Absorptance
  0.7,                                    !- Solar Absorptance
  0.7;                                    !- Visible Absorptance

OS:Material,
  {a1008c4f-9740-4dda-9764-5ca764372809}, !- Handle
  Roof Insulation [18],                   !- Name
  MediumRough,                            !- Roughness
  0.1693,                                 !- Thickness {m}
  0.049,                                  !- Conductivity {W/m-K}
  265,                                    !- Density {kg/m3}
  836.800000000001,                       !- Specific Heat {J/kg-K}
  0.9,                                    !- Thermal Absorptance
  0.7,                                    !- Solar Absorptance
  0.7;                                    !- Visible Absorptance

OS:Material,
  {f96994cd-dabe-417d-aa43-142a069937ac}, !- Handle
  Metal Decking,                          !- Name
  MediumSmooth,                           !- Roughness
  0.0015,                                 !- Thickness {m}
  45.006,                                 !- Conductivity {W/m-K}
  7680,                                   !- Density {kg/m3}
  418.4,                                  !- Specific Heat {J/kg-K}
  0.9,                                    !- Thermal Absorptance
  0.7,                                    !- Solar Absorptance
  0.3;                                    !- Visible Absorptance

OS:Construction,
  {c5931a94-8d95-4e7e-9b68-31887fac4984}, !- Handle
  ASHRAE 189.1-2009 ExtRoof IEAD ClimateZone 2-5, !- Name
  ,                                       !- Surface Rendering Name
  {e1c401d9-bd02-481a-ad6c-bcdd017dbb8a}, !- Layer 1
  {e67ebb3c-ba83-4f3a-8b6a-7c461cabfacf}, !- Layer 2
  {f96994cd-dabe-417d-aa43-142a069937ac}; !- Layer 3

OS:StandardsInformation:Construction,
  {6b17148a-87e2-4193-ab83-8b2d6eefcc82}, !- Handle
  {c5931a94-8d95-4e7e-9b68-31887fac4984}, !- Construction Name
  ExteriorRoof,                           !- Intended Surface Type
  IEAD;                                   !- Standards Construction Type

OS:Material,
  {e67ebb3c-ba83-4f3a-8b6a-7c461cabfacf}, !- Handle
  Roof Insulation [21],                   !- Name
  MediumRough,                            !- Roughness
  0.2105,                                 !- Thickness {m}
  0.049,                                  !- Conductivity {W/m-K}
  265,                                    !- Density {kg/m3}
  836.800000000001,                       !- Specific Heat {J/kg-K}
  0.9,                                    !- Thermal Absorptance
  0.7,                                    !- Solar Absorptance
  0.7;                                    !- Visible Absorptance

OS:Construction,
  {32b40dc1-80c4-4b27-b38c-04dadd4a2a82}, !- Handle
  ASHRAE 189.1-2009 ExtRoof IEAD ClimateZone 6, !- Name
  ,                                       !- Surface Rendering Name
  {e1c401d9-bd02-481a-ad6c-bcdd017dbb8a}, !- Layer 1
  {4f0a4b52-76e6-4b7c-85ad-320c854192e7}, !- Layer 2
  {f96994cd-dabe-417d-aa43-142a069937ac}; !- Layer 3

OS:StandardsInformation:Construction,
  {bb3468f9-692c-4bef-a5db-94e9ca2ed936}, !- Handle
  {32b40dc1-80c4-4b27-b38c-04dadd4a2a82}, !- Construction Name
  ExteriorRoof,                           !- Intended Surface Type
  IEAD;                                   !- Standards Construction Type

OS:Material,
  {4f0a4b52-76e6-4b7c-85ad-320c854192e7}, !- Handle
  Roof Insulation [24],                   !- Name
  MediumRough,                            !- Roughness
  0.260100000000001,                      !- Thickness {m}
  0.049,                                  !- Conductivity {W/m-K}
  265,                                    !- Density {kg/m3}
  836.800000000001,                       !- Specific Heat {J/kg-K}
  0.9,                                    !- Thermal Absorptance
  0.7,                                    !- Solar Absorptance
  0.7;                                    !- Visible Absorptance

OS:Construction,
  {aa47b8f2-e979-4b95-9cbf-afdcbc0182f7}, !- Handle
  ASHRAE 189.1-2009 ExtRoof IEAD ClimateZone 7-8, !- Name
  ,                                       !- Surface Rendering Name
  {e1c401d9-bd02-481a-ad6c-bcdd017dbb8a}, !- Layer 1
  {bc2cada7-e32a-4afe-bd9d-e11fadb3e337}, !- Layer 2
  {f96994cd-dabe-417d-aa43-142a069937ac}; !- Layer 3

OS:StandardsInformation:Construction,
  {228afe4d-3481-46ee-8b88-4eb6d6c717da}, !- Handle
  {aa47b8f2-e979-4b95-9cbf-afdcbc0182f7}, !- Construction Name
  ExteriorRoof,                           !- Intended Surface Type
  IEAD;                                   !- Standards Construction Type

OS:Material,
  {bc2cada7-e32a-4afe-bd9d-e11fadb3e337}, !- Handle
  Roof Insulation [26],                   !- Name
  MediumRough,                            !- Roughness
  0.2941,                                 !- Thickness {m}
  0.049,                                  !- Conductivity {W/m-K}
  265,                                    !- Density {kg/m3}
  836.800000000001,                       !- Specific Heat {J/kg-K}
  0.9,                                    !- Thermal Absorptance
  0.7,                                    !- Solar Absorptance
  0.7;                                    !- Visible Absorptance

OS:Construction,
  {08660f56-d49d-42ab-935e-c518128ae9bc}, !- Handle
  ASHRAE 189.1-2009 ExtRoof Metal ClimateZone 1, !- Name
  ,                                       !- Surface Rendering Name
  {1a4fc1bb-cd4c-4aed-ba8f-821daeeee327}, !- Layer 1
  {5601a026-f2f5-4420-aadf-f039f9fd45d3}; !- Layer 2

OS:StandardsInformation:Construction,
  {cf0a405b-6492-40f3-9ff1-26e35b6b2d12}, !- Handle
  {08660f56-d49d-42ab-935e-c518128ae9bc}, !- Construction Name
  ExteriorRoof,                           !- Intended Surface Type
  Metal;                                  !- Standards Construction Type

OS:Material,
  {1a4fc1bb-cd4c-4aed-ba8f-821daeeee327}, !- Handle
  Metal Roofing,                          !- Name
  MediumSmooth,                           !- Roughness
  0.0015,                                 !- Thickness {m}
  45.006,                                 !- Conductivity {W/m-K}
  7680,                                   !- Density {kg/m3}
  418.4,                                  !- Specific Heat {J/kg-K}
  0.9,                                    !- Thermal Absorptance
  0.3,                                    !- Solar Absorptance
  0.3;                                    !- Visible Absorptance

OS:Material,
  {5601a026-f2f5-4420-aadf-f039f9fd45d3}, !- Handle
  Roof Insulation [19],                   !- Name
  MediumRough,                            !- Roughness
  0.1868,                                 !- Thickness {m}
  0.049,                                  !- Conductivity {W/m-K}
  265,                                    !- Density {kg/m3}
  836.800000000001,                       !- Specific Heat {J/kg-K}
  0.9,                                    !- Thermal Absorptance
  0.7,                                    !- Solar Absorptance
  0.7;                                    !- Visible Absorptance

OS:Construction,
  {0134e08d-0354-4689-99f0-d4861e4cc3d3}, !- Handle
  ASHRAE 189.1-2009 ExtRoof Metal ClimateZone 2-5, !- Name
  ,                                       !- Surface Rendering Name
  {1a4fc1bb-cd4c-4aed-ba8f-821daeeee327}, !- Layer 1
  {20e62c53-6d1a-4264-ba5c-f963626b9708}; !- Layer 2

OS:StandardsInformation:Construction,
  {603146c8-b7c9-40ab-bc22-db50bfecfd17}, !- Handle
  {0134e08d-0354-4689-99f0-d4861e4cc3d3}, !- Construction Name
  ExteriorRoof,                           !- Intended Surface Type
  Metal;                                  !- Standards Construction Type

OS:Material,
  {20e62c53-6d1a-4264-ba5c-f963626b9708}, !- Handle
  Roof Insulation [22],                   !- Name
  MediumRough,                            !- Roughness
  0.2358,                                 !- Thickness {m}
  0.049,                                  !- Conductivity {W/m-K}
  265,                                    !- Density {kg/m3}
  836.800000000001,                       !- Specific Heat {J/kg-K}
  0.9,                                    !- Thermal Absorptance
  0.7,                                    !- Solar Absorptance
  0.7;                                    !- Visible Absorptance

OS:Construction,
  {1825e885-84cf-4cd2-8bac-f955400efb2f}, !- Handle
  ASHRAE 189.1-2009 ExtRoof Metal ClimateZone 6, !- Name
  ,                                       !- Surface Rendering Name
  {1a4fc1bb-cd4c-4aed-ba8f-821daeeee327}, !- Layer 1
  {f79f4bbe-60fc-45fe-85b0-71305abfd4f3}; !- Layer 2

OS:StandardsInformation:Construction,
  {22d1942a-e429-4d3b-8914-a88110a3120c}, !- Handle
  {1825e885-84cf-4cd2-8bac-f955400efb2f}, !- Construction Name
  ExteriorRoof,                           !- Intended Surface Type
  Metal;                                  !- Standards Construction Type

OS:Material,
  {f79f4bbe-60fc-45fe-85b0-71305abfd4f3}, !- Handle
  Roof Insulation [25],                   !- Name
  MediumRough,                            !- Roughness
  0.263,                                  !- Thickness {m}
  0.049,                                  !- Conductivity {W/m-K}
  265,                                    !- Density {kg/m3}
  836.800000000001,                       !- Specific Heat {J/kg-K}
  0.9,                                    !- Thermal Absorptance
  0.7,                                    !- Solar Absorptance
  0.7;                                    !- Visible Absorptance

OS:Construction,
  {8a62c94a-dab0-4fc9-8ec9-cd248a052bea}, !- Handle
  ASHRAE 189.1-2009 ExtRoof Metal ClimateZone 7-8, !- Name
  ,                                       !- Surface Rendering Name
  {1a4fc1bb-cd4c-4aed-ba8f-821daeeee327}, !- Layer 1
  {eda53f09-2bab-4c97-a0cd-3346437cec9d}; !- Layer 2

OS:StandardsInformation:Construction,
  {ae2735e1-6ee0-4d69-9ac7-08d580994a67}, !- Handle
  {8a62c94a-dab0-4fc9-8ec9-cd248a052bea}, !- Construction Name
  ExteriorRoof,                           !- Intended Surface Type
  Metal;                                  !- Standards Construction Type

OS:Material,
  {eda53f09-2bab-4c97-a0cd-3346437cec9d}, !- Handle
  Roof Insulation [27],                   !- Name
  MediumRough,                            !- Roughness
  0.297000000000001,                      !- Thickness {m}
  0.049,                                  !- Conductivity {W/m-K}
  265,                                    !- Density {kg/m3}
  836.800000000001,                       !- Specific Heat {J/kg-K}
  0.9,                                    !- Thermal Absorptance
  0.7,                                    !- Solar Absorptance
  0.7;                                    !- Visible Absorptance

OS:Construction,
  {f8d4e44d-1633-4ea1-8ac3-d039f033c6bb}, !- Handle
  ASHRAE 189.1-2009 ExtWall Mass ClimateZone 1, !- Name
  ,                                       !- Surface Rendering Name
  {17f0e766-4fa9-4569-a872-6a36a8a2492c}, !- Layer 1
  {505ce736-0414-4120-9e4e-08257d28c7d0}, !- Layer 2
  {80408b32-df8f-407a-aa94-940c9163b46b}, !- Layer 3
  {0e5e37d5-8b36-4542-af9f-3b0561e89e8d}; !- Layer 4

OS:StandardsInformation:Construction,
  {752e2fc4-391e-4ca0-84ec-657b45cdaaf1}, !- Handle
  {f8d4e44d-1633-4ea1-8ac3-d039f033c6bb}, !- Construction Name
  ExteriorWall,                           !- Intended Surface Type
  Mass;                                   !- Standards Construction Type

OS:Material,
  {17f0e766-4fa9-4569-a872-6a36a8a2492c}, !- Handle
  1IN Stucco,                             !- Name
  Smooth,                                 !- Roughness
  0.0253,                                 !- Thickness {m}
  0.691799999999999,                      !- Conductivity {W/m-K}
  1858,                                   !- Density {kg/m3}
  836.999999999999,                       !- Specific Heat {J/kg-K}
  0.9,                                    !- Thermal Absorptance
  0.92,                                   !- Solar Absorptance
  0.92;                                   !- Visible Absorptance

OS:Material,
  {505ce736-0414-4120-9e4e-08257d28c7d0}, !- Handle
  8IN Concrete HW,                        !- Name
  MediumRough,                            !- Roughness
  0.2033,                                 !- Thickness {m}
  1.72959999999999,                       !- Conductivity {W/m-K}
  2242.99999999999,                       !- Density {kg/m3}
  836.999999999999,                       !- Specific Heat {J/kg-K}
  0.9,                                    !- Thermal Absorptance
  0.65,                                   !- Solar Absorptance
  0.65;                                   !- Visible Absorptance

OS:Material,
  {80408b32-df8f-407a-aa94-940c9163b46b}, !- Handle
  Wall Insulation [31],                   !- Name
  MediumRough,                            !- Roughness
  0.0337000000000001,                     !- Thickness {m}
  0.0432,                                 !- Conductivity {W/m-K}
  91,                                     !- Density {kg/m3}
  836.999999999999,                       !- Specific Heat {J/kg-K}
  0.9,                                    !- Thermal Absorptance
  0.5,                                    !- Solar Absorptance
  0.5;                                    !- Visible Absorptance

OS:Construction,
  {836c60f8-fadd-4c10-886d-d4eccedbd0a1}, !- Handle
  ASHRAE 189.1-2009 ExtWall Mass ClimateZone 2, !- Name
  ,                                       !- Surface Rendering Name
  {17f0e766-4fa9-4569-a872-6a36a8a2492c}, !- Layer 1
  {505ce736-0414-4120-9e4e-08257d28c7d0}, !- Layer 2
  {98bb11ae-6e97-46b3-8f95-e8eddf6be01e}, !- Layer 3
  {0e5e37d5-8b36-4542-af9f-3b0561e89e8d}; !- Layer 4

OS:StandardsInformation:Construction,
  {fd5de7e7-7f59-49e5-907e-0f551b906958}, !- Handle
  {836c60f8-fadd-4c10-886d-d4eccedbd0a1}, !- Construction Name
  ExteriorWall,                           !- Intended Surface Type
  Mass;                                   !- Standards Construction Type

OS:Material,
  {98bb11ae-6e97-46b3-8f95-e8eddf6be01e}, !- Handle
  Wall Insulation [35],                   !- Name
  MediumRough,                            !- Roughness
  0.0452,                                 !- Thickness {m}
  0.0432,                                 !- Conductivity {W/m-K}
  91,                                     !- Density {kg/m3}
  836.999999999999,                       !- Specific Heat {J/kg-K}
  0.9,                                    !- Thermal Absorptance
  0.5,                                    !- Solar Absorptance
  0.5;                                    !- Visible Absorptance

OS:Construction,
  {589cd067-7e9e-48d5-b971-7f820d652841}, !- Handle
  ASHRAE 189.1-2009 ExtWall Mass ClimateZone 3, !- Name
  ,                                       !- Surface Rendering Name
  {17f0e766-4fa9-4569-a872-6a36a8a2492c}, !- Layer 1
  {505ce736-0414-4120-9e4e-08257d28c7d0}, !- Layer 2
  {a086031f-4fc3-4a44-94e4-97bf901035f2}, !- Layer 3
  {0e5e37d5-8b36-4542-af9f-3b0561e89e8d}; !- Layer 4

OS:StandardsInformation:Construction,
  {ff3fde68-fb8f-4ccd-96cc-9c933d480780}, !- Handle
  {589cd067-7e9e-48d5-b971-7f820d652841}, !- Construction Name
  ExteriorWall,                           !- Intended Surface Type
  Mass;                                   !- Standards Construction Type

OS:Material,
  {a086031f-4fc3-4a44-94e4-97bf901035f2}, !- Handle
  Wall Insulation [36],                   !- Name
  MediumRough,                            !- Roughness
  0.0565999999999999,                     !- Thickness {m}
  0.0432,                                 !- Conductivity {W/m-K}
  91,                                     !- Density {kg/m3}
  836.999999999999,                       !- Specific Heat {J/kg-K}
  0.9,                                    !- Thermal Absorptance
  0.5,                                    !- Solar Absorptance
  0.5;                                    !- Visible Absorptance

OS:Construction,
  {c74cc2ca-ec64-4e52-82a4-59550f4f0a29}, !- Handle
  ASHRAE 189.1-2009 ExtWall Mass ClimateZone 4, !- Name
  ,                                       !- Surface Rendering Name
  {17f0e766-4fa9-4569-a872-6a36a8a2492c}, !- Layer 1
  {505ce736-0414-4120-9e4e-08257d28c7d0}, !- Layer 2
  {c92d4339-c68e-47e8-94dc-db090f098b8c}, !- Layer 3
  {0e5e37d5-8b36-4542-af9f-3b0561e89e8d}; !- Layer 4

OS:StandardsInformation:Construction,
  {b2e7dbc6-72a6-4315-84d2-268dc03b0f3c}, !- Handle
  {c74cc2ca-ec64-4e52-82a4-59550f4f0a29}, !- Construction Name
  ExteriorWall,                           !- Intended Surface Type
  Mass;                                   !- Standards Construction Type

OS:Material,
  {c92d4339-c68e-47e8-94dc-db090f098b8c}, !- Handle
  Wall Insulation [37],                   !- Name
  MediumRough,                            !- Roughness
  0.0680999999999999,                     !- Thickness {m}
  0.0432,                                 !- Conductivity {W/m-K}
  91,                                     !- Density {kg/m3}
  836.999999999999,                       !- Specific Heat {J/kg-K}
  0.9,                                    !- Thermal Absorptance
  0.5,                                    !- Solar Absorptance
  0.5;                                    !- Visible Absorptance

OS:Construction,
  {76b1ec58-7ad9-4208-a745-53bd3d37c375}, !- Handle
  ASHRAE 189.1-2009 ExtWall Mass ClimateZone 5, !- Name
  ,                                       !- Surface Rendering Name
  {17f0e766-4fa9-4569-a872-6a36a8a2492c}, !- Layer 1
  {505ce736-0414-4120-9e4e-08257d28c7d0}, !- Layer 2
  {019b7b86-af55-4289-a3ac-33c91cf8a8aa}, !- Layer 3
  {0e5e37d5-8b36-4542-af9f-3b0561e89e8d}; !- Layer 4

OS:StandardsInformation:Construction,
  {2e500bcb-6f2e-4c61-8fc5-480959be6811}, !- Handle
  {76b1ec58-7ad9-4208-a745-53bd3d37c375}, !- Construction Name
  ExteriorWall,                           !- Intended Surface Type
  Mass;                                   !- Standards Construction Type

OS:Material,
  {019b7b86-af55-4289-a3ac-33c91cf8a8aa}, !- Handle
  Wall Insulation [40],                   !- Name
  MediumRough,                            !- Roughness
  0.0793999999999999,                     !- Thickness {m}
  0.0432,                                 !- Conductivity {W/m-K}
  91,                                     !- Density {kg/m3}
  836.999999999999,                       !- Specific Heat {J/kg-K}
  0.9,                                    !- Thermal Absorptance
  0.5,                                    !- Solar Absorptance
  0.5;                                    !- Visible Absorptance

OS:Construction,
  {4b4183b2-f115-40bc-ab2b-0b146b8f7cb1}, !- Handle
  ASHRAE 189.1-2009 ExtWall Mass ClimateZone 6, !- Name
  ,                                       !- Surface Rendering Name
  {17f0e766-4fa9-4569-a872-6a36a8a2492c}, !- Layer 1
  {505ce736-0414-4120-9e4e-08257d28c7d0}, !- Layer 2
  {750b61b2-5178-4b52-a6b9-2d8559fa4ed6}, !- Layer 3
  {0e5e37d5-8b36-4542-af9f-3b0561e89e8d}; !- Layer 4

OS:StandardsInformation:Construction,
  {3da69e19-6241-4f35-9e01-36c5b46ec63d}, !- Handle
  {4b4183b2-f115-40bc-ab2b-0b146b8f7cb1}, !- Construction Name
  ExteriorWall,                           !- Intended Surface Type
  Mass;                                   !- Standards Construction Type

OS:Material,
  {750b61b2-5178-4b52-a6b9-2d8559fa4ed6}, !- Handle
  Wall Insulation [42],                   !- Name
  MediumRough,                            !- Roughness
  0.0913999999999999,                     !- Thickness {m}
  0.0432,                                 !- Conductivity {W/m-K}
  91,                                     !- Density {kg/m3}
  836.999999999999,                       !- Specific Heat {J/kg-K}
  0.9,                                    !- Thermal Absorptance
  0.5,                                    !- Solar Absorptance
  0.5;                                    !- Visible Absorptance

OS:Construction,
  {7d169e26-1178-4e8d-b51a-b67fa8f31fa3}, !- Handle
  ASHRAE 189.1-2009 ExtWall Mass ClimateZone 7-8, !- Name
  ,                                       !- Surface Rendering Name
  {17f0e766-4fa9-4569-a872-6a36a8a2492c}, !- Layer 1
  {505ce736-0414-4120-9e4e-08257d28c7d0}, !- Layer 2
  {adfa50b8-2cbb-4e30-a531-80dd7f0dfdd9}, !- Layer 3
  {0e5e37d5-8b36-4542-af9f-3b0561e89e8d}; !- Layer 4

OS:StandardsInformation:Construction,
  {f90ec0e1-196d-441a-a887-fd0dd702c7ff}, !- Handle
  {7d169e26-1178-4e8d-b51a-b67fa8f31fa3}, !- Construction Name
  ExteriorWall,                           !- Intended Surface Type
  Mass;                                   !- Standards Construction Type

OS:Material,
  {adfa50b8-2cbb-4e30-a531-80dd7f0dfdd9}, !- Handle
  Wall Insulation [44],                   !- Name
  MediumRough,                            !- Roughness
  0.1104,                                 !- Thickness {m}
  0.0432,                                 !- Conductivity {W/m-K}
  91,                                     !- Density {kg/m3}
  836.999999999999,                       !- Specific Heat {J/kg-K}
  0.9,                                    !- Thermal Absorptance
  0.5,                                    !- Solar Absorptance
  0.5;                                    !- Visible Absorptance

OS:Construction,
  {a5bf9dd3-4b9d-4f9e-8616-eaa1ba40822b}, !- Handle
  ASHRAE 189.1-2009 ExtWall Mass ClimateZone alt-res 1, !- Name
  ,                                       !- Surface Rendering Name
  {17f0e766-4fa9-4569-a872-6a36a8a2492c}, !- Layer 1
  {505ce736-0414-4120-9e4e-08257d28c7d0}, !- Layer 2
  {98bb11ae-6e97-46b3-8f95-e8eddf6be01e}, !- Layer 3
  {0e5e37d5-8b36-4542-af9f-3b0561e89e8d}; !- Layer 4

OS:StandardsInformation:Construction,
  {bc41b018-1fa6-4ce5-965e-2d2647b3d130}, !- Handle
  {a5bf9dd3-4b9d-4f9e-8616-eaa1ba40822b}, !- Construction Name
  ExteriorWall,                           !- Intended Surface Type
  Mass;                                   !- Standards Construction Type

OS:Construction,
  {066a5ab0-9850-4c48-8341-853ebf32e822}, !- Handle
  ASHRAE 189.1-2009 ExtWall Mass ClimateZone alt-res 2, !- Name
  ,                                       !- Surface Rendering Name
  {17f0e766-4fa9-4569-a872-6a36a8a2492c}, !- Layer 1
  {505ce736-0414-4120-9e4e-08257d28c7d0}, !- Layer 2
  {a086031f-4fc3-4a44-94e4-97bf901035f2}, !- Layer 3
  {0e5e37d5-8b36-4542-af9f-3b0561e89e8d}; !- Layer 4

OS:StandardsInformation:Construction,
  {656e80b2-b5b1-44da-9462-a934d6044ab8}, !- Handle
  {066a5ab0-9850-4c48-8341-853ebf32e822}, !- Construction Name
  ExteriorWall,                           !- Intended Surface Type
  Mass;                                   !- Standards Construction Type

OS:Construction,
  {4b4e1eeb-af01-4fa5-8153-ce57c0fbe06d}, !- Handle
  ASHRAE 189.1-2009 ExtWall Mass ClimateZone alt-res 3, !- Name
  ,                                       !- Surface Rendering Name
  {17f0e766-4fa9-4569-a872-6a36a8a2492c}, !- Layer 1
  {505ce736-0414-4120-9e4e-08257d28c7d0}, !- Layer 2
  {c92d4339-c68e-47e8-94dc-db090f098b8c}, !- Layer 3
  {0e5e37d5-8b36-4542-af9f-3b0561e89e8d}; !- Layer 4

OS:StandardsInformation:Construction,
  {c92e685b-dff2-4584-a5ad-be33f58f80a4}, !- Handle
  {4b4e1eeb-af01-4fa5-8153-ce57c0fbe06d}, !- Construction Name
  ExteriorWall,                           !- Intended Surface Type
  Mass;                                   !- Standards Construction Type

OS:Construction,
  {c70e48af-8ab3-4915-a6e0-f1b31ec320ac}, !- Handle
  ASHRAE 189.1-2009 ExtWall Mass ClimateZone alt-res 4, !- Name
  ,                                       !- Surface Rendering Name
  {17f0e766-4fa9-4569-a872-6a36a8a2492c}, !- Layer 1
  {505ce736-0414-4120-9e4e-08257d28c7d0}, !- Layer 2
  {019b7b86-af55-4289-a3ac-33c91cf8a8aa}, !- Layer 3
  {0e5e37d5-8b36-4542-af9f-3b0561e89e8d}; !- Layer 4

OS:StandardsInformation:Construction,
  {b0954c62-2168-4e05-9ca1-ca817eca4db2}, !- Handle
  {c70e48af-8ab3-4915-a6e0-f1b31ec320ac}, !- Construction Name
  ExteriorWall,                           !- Intended Surface Type
  Mass;                                   !- Standards Construction Type

OS:Construction,
  {9f03dc44-9db4-47cd-8a28-fa536239d717}, !- Handle
  ASHRAE 189.1-2009 ExtWall Mass ClimateZone alt-res 5, !- Name
  ,                                       !- Surface Rendering Name
  {17f0e766-4fa9-4569-a872-6a36a8a2492c}, !- Layer 1
  {505ce736-0414-4120-9e4e-08257d28c7d0}, !- Layer 2
  {750b61b2-5178-4b52-a6b9-2d8559fa4ed6}, !- Layer 3
  {0e5e37d5-8b36-4542-af9f-3b0561e89e8d}; !- Layer 4

OS:StandardsInformation:Construction,
  {511baae1-413f-4823-bd0d-55c50ee0337c}, !- Handle
  {9f03dc44-9db4-47cd-8a28-fa536239d717}, !- Construction Name
  ExteriorWall,                           !- Intended Surface Type
  Mass;                                   !- Standards Construction Type

OS:Construction,
  {0eedf389-1357-4185-af29-9e2c53f8721b}, !- Handle
  ASHRAE 189.1-2009 ExtWall Mass ClimateZone alt-res 6, !- Name
  ,                                       !- Surface Rendering Name
  {17f0e766-4fa9-4569-a872-6a36a8a2492c}, !- Layer 1
  {505ce736-0414-4120-9e4e-08257d28c7d0}, !- Layer 2
  {adfa50b8-2cbb-4e30-a531-80dd7f0dfdd9}, !- Layer 3
  {0e5e37d5-8b36-4542-af9f-3b0561e89e8d}; !- Layer 4

OS:StandardsInformation:Construction,
  {657fa7a9-e86e-4bf5-a595-eecf7fe8a55a}, !- Handle
  {0eedf389-1357-4185-af29-9e2c53f8721b}, !- Construction Name
  ExteriorWall,                           !- Intended Surface Type
  Mass;                                   !- Standards Construction Type

OS:Construction,
  {4315aca6-0f30-49e8-b620-f0bdc205cb34}, !- Handle
  ASHRAE 189.1-2009 ExtWall Mass ClimateZone alt-res 7, !- Name
  ,                                       !- Surface Rendering Name
  {17f0e766-4fa9-4569-a872-6a36a8a2492c}, !- Layer 1
  {505ce736-0414-4120-9e4e-08257d28c7d0}, !- Layer 2
  {adfa50b8-2cbb-4e30-a531-80dd7f0dfdd9}, !- Layer 3
  {0e5e37d5-8b36-4542-af9f-3b0561e89e8d}; !- Layer 4

OS:StandardsInformation:Construction,
  {b6fd2877-205c-4df8-83ad-9498567d2fec}, !- Handle
  {4315aca6-0f30-49e8-b620-f0bdc205cb34}, !- Construction Name
  ExteriorWall,                           !- Intended Surface Type
  Mass;                                   !- Standards Construction Type

OS:Construction,
  {41db5900-0401-4e9f-9d3e-eaec27d740bc}, !- Handle
  ASHRAE 189.1-2009 ExtWall Mass ClimateZone alt-res 8, !- Name