
OS:Version,
  {7b95ec55-5c84-4d54-89f2-5678bb65c353}, !- Handle
  1.4.0;                                  !- Version Identifier

OS:Construction,
  {3db3f649-1c6f-4586-b1da-01ec4c248389}, !- Handle
  ASHRAE 189.1-2009 AtticFloor ClimateZone 1-8, !- Name
  ,                                       !- Surface Rendering Name
  {dfa9111c-fd5a-4730-a18a-0a8acbd45076}, !- Layer 1
  {0aa5beaa-596e-44f5-8d17-4b85d2ef3238}, !- Layer 2
  {dfa9111c-fd5a-4730-a18a-0a8acbd45076}; !- Layer 3

OS:StandardsInformation:Construction,
  {0f050eee-ddbe-4fc8-bc6d-3de9fa5a62d9}, !- Handle
  {3db3f649-1c6f-4586-b1da-01ec4c248389}, !- Construction Name
  AtticFloor,                             !- Intended Surface Type
  WoodFramed;                             !- Standards Construction Type

OS:Material,
  {dfa9111c-fd5a-4730-a18a-0a8acbd45076}, !- Handle
  1/2IN Gypsum,                           !- Name
  Smooth,                                 !- Roughness
  0.0127,                                 !- Thickness {m}
  0.16,                                   !- Conductivity {W/m-K}
  784.9,                                  !- Density {kg/m3}
  830.000000000001,                       !- Specific Heat {J/kg-K}
  0.9,                                    !- Thermal Absorptance
  0.4,                                    !- Solar Absorptance
  0.4;                                    !- Visible Absorptance

OS:Material,
  {0aa5beaa-596e-44f5-8d17-4b85d2ef3238}, !- Handle
  AtticFloor Insulation,                  !- Name
  MediumRough,                            !- Roughness
  0.2379,                                 !- Thickness {m}
  0.049,                                  !- Conductivity {W/m-K}
  265,                                    !- Density {kg/m3}
  836.800000000001,                       !- Specific Heat {J/kg-K}
  0.9,                                    !- Thermal Absorptance
  0.7,                                    !- Solar Absorptance
  0.7;                                    !- Visible Absorptance

OS:Construction,
  {a40e4aca-4d0b-41a8-ac59-252e0ec300df}, !- Handle
  ASHRAE 189.1-2009 ExtRoof IEAD ClimateZone 1, !- Name
  ,                                       !- Surface Rendering Name
  {40a5ad54-fdb2-498b-9e2f-d7191b5afbe4}, !- Layer 1
  {77680c9b-76e5-4b10-a9de-37bbfa94d44b}, !- Layer 2
  {c896d756-afde-462e-a52a-90d5964321db}; !- Layer 3

OS:StandardsInformation:Construction,
  {9469da4a-0fab-4624-9006-6ccf685f4c3d}, !- Handle
  {a40e4aca-4d0b-41a8-ac59-252e0ec300df}, !- Construction Name
  ExteriorRoof,                           !- Intended Surface Type
  IEAD;                                   !- Standards Construction Type

OS:Material,
  {40a5ad54-fdb2-498b-9e2f-d7191b5afbe4}, !- Handle
  Roof Membrane,                          !- Name
  VeryRough,                              !- Roughness
  0.0095,                                 !- Thickness {m}
  0.16,                                   !- Conductivity {W/m-K}
  1121.29,                                !- Density {kg/m3}
  1460,                                   !- Specific Heat {J/kg-K}
  0.9,                                    !- Thermal Absorptance
  0.7,                                    !- Solar Absorptance
  0.7;                                    !- Visible Absorptance

OS:Material,
  {77680c9b-76e5-4b10-a9de-37bbfa94d44b}, !- Handle
  Roof Insulation [18],                   !- Name
  MediumRough,                            !- Roughness
  0.1693,                                 !- Thickness {m}
  0.049,                                  !- Conductivity {W/m-K}
  265,                                    !- Density {kg/m3}
  836.800000000001,                       !- Specific Heat {J/kg-K}
  0.9,                                    !- Thermal Absorptance
  0.7,                                    !- Solar Absorptance
  0.7;                                    !- Visible Absorptance

OS:Material,
  {c896d756-afde-462e-a52a-90d5964321db}, !- Handle
  Metal Decking,                          !- Name
  MediumSmooth,                           !- Roughness
  0.0015,                                 !- Thickness {m}
  45.006,                                 !- Conductivity {W/m-K}
  7680,                                   !- Density {kg/m3}
  418.4,                                  !- Specific Heat {J/kg-K}
  0.9,                                    !- Thermal Absorptance
  0.6,                                    !- Solar Absorptance
  0.6;                                    !- Visible Absorptance

OS:Construction,
  {d0b050ac-660e-485b-84f9-6631293b2f07}, !- Handle
  ASHRAE 189.1-2009 ExtRoof IEAD ClimateZone 2-5, !- Name
  ,                                       !- Surface Rendering Name
  {40a5ad54-fdb2-498b-9e2f-d7191b5afbe4}, !- Layer 1
  {2218f9bb-8b95-4167-a7d2-bf1f7aee922f}, !- Layer 2
  {c896d756-afde-462e-a52a-90d5964321db}; !- Layer 3

OS:StandardsInformation:Construction,
  {8e66d37d-fed1-4501-ba87-c42b9d4f9955}, !- Handle
  {d0b050ac-660e-485b-84f9-6631293b2f07}, !- Construction Name
  ExteriorRoof,                           !- Intended Surface Type
  IEAD;                                   !- Standards Construction Type

OS:Material,
  {2218f9bb-8b95-4167-a7d2-bf1f7aee922f}, !- Handle
  Roof Insulation [21],                   !- Name
  MediumRough,                            !- Roughness
  0.2105,                                 !- Thickness {m}
  0.049,                                  !- Conductivity {W/m-K}
  265,                                    !- Density {kg/m3}
  836.800000000001,                       !- Specific Heat {J/kg-K}
  0.9,                                    !- Thermal Absorptance
  0.7,                                    !- Solar Absorptance
  0.7;                                    !- Visible Absorptance

OS:Construction,
  {ac999c20-bb69-4b1d-a65e-71fc96fcc95b}, !- Handle
  ASHRAE 189.1-2009 ExtRoof IEAD ClimateZone 6, !- Name
  ,                                       !- Surface Rendering Name
  {40a5ad54-fdb2-498b-9e2f-d7191b5afbe4}, !- Layer 1
  {d3b67c37-7473-435c-a82d-235444b8379a}, !- Layer 2
  {c896d756-afde-462e-a52a-90d5964321db}; !- Layer 3

OS:StandardsInformation:Construction,
  {0907041a-91b7-40fe-bf4f-bc94835e2fe7}, !- Handle
  {ac999c20-bb69-4b1d-a65e-71fc96fcc95b}, !- Construction Name
  ExteriorRoof,                           !- Intended Surface Type
  IEAD;                                   !- Standards Construction Type

OS:Material,
  {d3b67c37-7473-435c-a82d-235444b8379a}, !- Handle
  Roof Insulation [24],                   !- Name
  MediumRough,                            !- Roughness
  0.260100000000001,                      !- Thickness {m}
  0.049,                                  !- Conductivity {W/m-K}
  265,                                    !- Density {kg/m3}
  836.800000000001,                       !- Specific Heat {J/kg-K}
  0.9,                                    !- Thermal Absorptance
  0.7,                                    !- Solar Absorptance
  0.7;                                    !- Visible Absorptance

OS:Construction,
  {38b6eced-e120-42aa-837c-46c44127b071}, !- Handle
  ASHRAE 189.1-2009 ExtRoof IEAD ClimateZone 7-8, !- Name
  ,                                       !- Surface Rendering Name
  {40a5ad54-fdb2-498b-9e2f-d7191b5afbe4}, !- Layer 1
  {8d731d1e-2a45-4406-821c-d4674d23a18a}, !- Layer 2
  {c896d756-afde-462e-a52a-90d5964321db}; !- Layer 3

OS:StandardsInformation:Construction,
  {ce5aef35-3737-4b2f-a180-5d2bf867f038}, !- Handle
  {38b6eced-e120-42aa-837c-46c44127b071}, !- Construction Name
  ExteriorRoof,                           !- Intended Surface Type
  IEAD;                                   !- Standards Construction Type

OS:Material,
  {8d731d1e-2a45-4406-821c-d4674d23a18a}, !- Handle
  Roof Insulation [26],                   !- Name
  MediumRough,                            !- Roughness
  0.2941,                                 !- Thickness {m}
  0.049,                                  !- Conductivity {W/m-K}
  265,                                    !- Density {kg/m3}
  836.800000000001,                       !- Specific Heat {J/kg-K}
  0.9,                                    !- Thermal Absorptance
  0.7,                                    !- Solar Absorptance
  0.7;                                    !- Visible Absorptance

OS:Construction,
  {f6390a11-5f73-49e9-9482-689716c40e39}, !- Handle
  ASHRAE 189.1-2009 ExtRoof Metal ClimateZone 1, !- Name
  ,                                       !- Surface Rendering Name
  {f23dcea6-f0a5-4cc6-a475-eecd4ec69e30}, !- Layer 1
  {8e388789-bf70-4a49-8e48-874dafb6e1ce}, !- Layer 2
  {c896d756-afde-462e-a52a-90d5964321db}; !- Layer 3

OS:StandardsInformation:Construction,
  {345b5336-f9df-43cb-ade3-13b0616fbbf8}, !- Handle
  {f6390a11-5f73-49e9-9482-689716c40e39}, !- Construction Name
  ExteriorRoof,                           !- Intended Surface Type
  Metal;                                  !- Standards Construction Type

OS:Material,
  {f23dcea6-f0a5-4cc6-a475-eecd4ec69e30}, !- Handle
  Metal Roofing,                          !- Name
  MediumSmooth,                           !- Roughness
  0.0015,                                 !- Thickness {m}
  45.006,                                 !- Conductivity {W/m-K}
  7680,                                   !- Density {kg/m3}
  418.4,                                  !- Specific Heat {J/kg-K}
  0.9,                                    !- Thermal Absorptance
  0.6,                                    !- Solar Absorptance
  0.6;                                    !- Visible Absorptance

OS:Material,
  {8e388789-bf70-4a49-8e48-874dafb6e1ce}, !- Handle
  Roof Insulation [19],                   !- Name
  MediumRough,                            !- Roughness
  0.1868,                                 !- Thickness {m}
  0.049,                                  !- Conductivity {W/m-K}
  265,                                    !- Density {kg/m3}
  836.800000000001,                       !- Specific Heat {J/kg-K}
  0.9,                                    !- Thermal Absorptance
  0.7,                                    !- Solar Absorptance
  0.7;                                    !- Visible Absorptance

OS:Construction,
  {888f98f5-a7ba-435e-8b31-de2651b2c147}, !- Handle
  ASHRAE 189.1-2009 ExtRoof Metal ClimateZone 2-5, !- Name
  ,                                       !- Surface Rendering Name
  {f23dcea6-f0a5-4cc6-a475-eecd4ec69e30}, !- Layer 1
  {e06c21b4-85c0-41fe-9273-af63d4bca816}, !- Layer 2
  {c896d756-afde-462e-a52a-90d5964321db}; !- Layer 3

OS:StandardsInformation:Construction,
  {b82aba95-e16d-447c-910d-ec49493eab1f}, !- Handle
  {888f98f5-a7ba-435e-8b31-de2651b2c147}, !- Construction Name
  ExteriorRoof,                           !- Intended Surface Type
  Metal;                                  !- Standards Construction Type

OS:Material,
  {e06c21b4-85c0-41fe-9273-af63d4bca816}, !- Handle
  Roof Insulation [22],                   !- Name
  MediumRough,                            !- Roughness
  0.2358,                                 !- Thickness {m}
  0.049,                                  !- Conductivity {W/m-K}
  265,                                    !- Density {kg/m3}
  836.800000000001,                       !- Specific Heat {J/kg-K}
  0.9,                                    !- Thermal Absorptance
  0.7,                                    !- Solar Absorptance
  0.7;                                    !- Visible Absorptance

OS:Construction,
  {419aeda8-423f-4291-8e43-c16084d471ad}, !- Handle
  ASHRAE 189.1-2009 ExtRoof Metal ClimateZone 6, !- Name
  ,                                       !- Surface Rendering Name
  {f23dcea6-f0a5-4cc6-a475-eecd4ec69e30}, !- Layer 1
  {7dd159f7-a92b-48b8-9a84-7225f868c968}, !- Layer 2
  {c896d756-afde-462e-a52a-90d5964321db}; !- Layer 3

OS:StandardsInformation:Construction,
  {f68f59f4-faec-483f-8e3c-e20cdff63e81}, !- Handle
  {419aeda8-423f-4291-8e43-c16084d471ad}, !- Construction Name
  ExteriorRoof,                           !- Intended Surface Type
  Metal;                                  !- Standards Construction Type

OS:Material,
  {7dd159f7-a92b-48b8-9a84-7225f868c968}, !- Handle
  Roof Insulation [25],                   !- Name
  MediumRough,                            !- Roughness
  0.263,                                  !- Thickness {m}
  0.049,                                  !- Conductivity {W/m-K}
  265,                                    !- Density {kg/m3}
  836.800000000001,                       !- Specific Heat {J/kg-K}
  0.9,                                    !- Thermal Absorptance
  0.7,                                    !- Solar Absorptance
  0.7;                                    !- Visible Absorptance

OS:Construction,
  {4a8889be-aca9-40af-960a-c9a4ae932df7}, !- Handle
  ASHRAE 189.1-2009 ExtRoof Metal ClimateZone 7-8, !- Name
  ,                                       !- Surface Rendering Name
  {f23dcea6-f0a5-4cc6-a475-eecd4ec69e30}, !- Layer 1
  {4b8f6f4b-4a87-4d9f-afb2-8a445902ab98}, !- Layer 2
  {c896d756-afde-462e-a52a-90d5964321db}; !- Layer 3

OS:StandardsInformation:Construction,
  {84ce68da-947e-42dd-8b58-394143b5236e}, !- Handle
  {4a8889be-aca9-40af-960a-c9a4ae932df7}, !- Construction Name
  ExteriorRoof,                           !- Intended Surface Type
  Metal;                                  !- Standards Construction Type

OS:Material,
  {4b8f6f4b-4a87-4d9f-afb2-8a445902ab98}, !- Handle
  Roof Insulation [27],                   !- Name
  MediumRough,                            !- Roughness
  0.297000000000001,                      !- Thickness {m}
  0.049,                                  !- Conductivity {W/m-K}
  265,                                    !- Density {kg/m3}
  836.800000000001,                       !- Specific Heat {J/kg-K}
  0.9,                                    !- Thermal Absorptance
  0.7,                                    !- Solar Absorptance
  0.7;                                    !- Visible Absorptance

OS:Construction,
  {6eb203b3-c180-44bb-a39c-75a75799fa78}, !- Handle
  ASHRAE 189.1-2009 ExtWall Mass ClimateZone 1, !- Name
  ,                                       !- Surface Rendering Name
  {5f434855-d01a-4865-8e34-3b1d6a80dba3}, !- Layer 1
  {f7ab9a20-24ae-4b5c-97c1-67d976d75254}, !- Layer 2
  {25890e56-0e4b-4293-b91d-2e846b1527a1}, !- Layer 3
  {dfa9111c-fd5a-4730-a18a-0a8acbd45076}; !- Layer 4

OS:StandardsInformation:Construction,
  {3c3543e9-7ba3-4c63-a2b6-f16feb3a0392}, !- Handle
  {6eb203b3-c180-44bb-a39c-75a75799fa78}, !- Construction Name
  ExteriorWall,                           !- Intended Surface Type
  Mass;                                   !- Standards Construction Type

OS:Material,
  {5f434855-d01a-4865-8e34-3b1d6a80dba3}, !- Handle
  1IN Stucco,                             !- Name
  Smooth,                                 !- Roughness
  0.0253,                                 !- Thickness {m}
  0.691799999999999,                      !- Conductivity {W/m-K}
  1858,                                   !- Density {kg/m3}
  836.999999999999,                       !- Specific Heat {J/kg-K}
  0.9,                                    !- Thermal Absorptance
  0.92,                                   !- Solar Absorptance
  0.92;                                   !- Visible Absorptance

OS:Material,
  {f7ab9a20-24ae-4b5c-97c1-67d976d75254}, !- Handle
  8IN Concrete HW,                        !- Name
  MediumRough,                            !- Roughness
  0.2033,                                 !- Thickness {m}
  1.72959999999999,                       !- Conductivity {W/m-K}
  2242.99999999999,                       !- Density {kg/m3}
  836.999999999999,                       !- Specific Heat {J/kg-K}
  0.9,                                    !- Thermal Absorptance
  0.65,                                   !- Solar Absorptance
  0.65;                                   !- Visible Absorptance

OS:Material,
  {25890e56-0e4b-4293-b91d-2e846b1527a1}, !- Handle
  Wall Insulation [31],                   !- Name
  MediumRough,                            !- Roughness
  0.0337000000000001,                     !- Thickness {m}
  0.0432,                                 !- Conductivity {W/m-K}
  91,                                     !- Density {kg/m3}
  836.999999999999,                       !- Specific Heat {J/kg-K}
  0.9,                                    !- Thermal Absorptance
  0.5,                                    !- Solar Absorptance
  0.5;                                    !- Visible Absorptance

OS:Construction,
  {51862ba6-b335-4c5e-bfeb-7c16557778e2}, !- Handle
  ASHRAE 189.1-2009 ExtWall Mass ClimateZone 2, !- Name
  ,                                       !- Surface Rendering Name
  {5f434855-d01a-4865-8e34-3b1d6a80dba3}, !- Layer 1
  {f7ab9a20-24ae-4b5c-97c1-67d976d75254}, !- Layer 2
  {952b6b31-2109-4432-babf-22572f308832}, !- Layer 3
  {dfa9111c-fd5a-4730-a18a-0a8acbd45076}; !- Layer 4

OS:StandardsInformation:Construction,
  {b863167a-9d8e-4553-b332-1c697624abc1}, !- Handle
  {51862ba6-b335-4c5e-bfeb-7c16557778e2}, !- Construction Name
  ExteriorWall,                           !- Intended Surface Type
  Mass;                                   !- Standards Construction Type

OS:Material,
  {952b6b31-2109-4432-babf-22572f308832}, !- Handle
  Wall Insulation [35],                   !- Name
  MediumRough,                            !- Roughness
  0.0452,                                 !- Thickness {m}
  0.0432,                                 !- Conductivity {W/m-K}
  91,                                     !- Density {kg/m3}
  836.999999999999,                       !- Specific Heat {J/kg-K}
  0.9,                                    !- Thermal Absorptance
  0.5,                                    !- Solar Absorptance
  0.5;                                    !- Visible Absorptance

OS:Construction,
  {56670caf-3a1e-4e3e-acd5-067f6b3d2981}, !- Handle
  ASHRAE 189.1-2009 ExtWall Mass ClimateZone 3, !- Name
  ,                                       !- Surface Rendering Name
  {5f434855-d01a-4865-8e34-3b1d6a80dba3}, !- Layer 1
  {f7ab9a20-24ae-4b5c-97c1-67d976d75254}, !- Layer 2
  {9426d097-4bc7-4f00-827d-7717527a2316}, !- Layer 3
  {dfa9111c-fd5a-4730-a18a-0a8acbd45076}; !- Layer 4

OS:StandardsInformation:Construction,
  {46b9a8f3-5bff-4100-942e-7d87593d6945}, !- Handle
  {56670caf-3a1e-4e3e-acd5-067f6b3d2981}, !- Construction Name
  ExteriorWall,                           !- Intended Surface Type
  Mass;                                   !- Standards Construction Type

OS:Material,
  {9426d097-4bc7-4f00-827d-7717527a2316}, !- Handle
  Wall Insulation [36],                   !- Name
  MediumRough,                            !- Roughness
  0.0565999999999999,                     !- Thickness {m}
  0.0432,                                 !- Conductivity {W/m-K}
  91,                                     !- Density {kg/m3}
  836.999999999999,                       !- Specific Heat {J/kg-K}
  0.9,                                    !- Thermal Absorptance
  0.5,                                    !- Solar Absorptance
  0.5;                                    !- Visible Absorptance

OS:Construction,
  {33bccbf1-100d-4078-b773-782135e282a7}, !- Handle
  ASHRAE 189.1-2009 ExtWall Mass ClimateZone 4, !- Name
  ,                                       !- Surface Rendering Name
  {5f434855-d01a-4865-8e34-3b1d6a80dba3}, !- Layer 1
  {f7ab9a20-24ae-4b5c-97c1-67d976d75254}, !- Layer 2
  {34137156-a553-4f29-ba86-267a754e2d1e}, !- Layer 3
  {dfa9111c-fd5a-4730-a18a-0a8acbd45076}; !- Layer 4

OS:StandardsInformation:Construction,
  {309e8112-5506-437b-ac9c-9f21dd3e6f24}, !- Handle
  {33bccbf1-100d-4078-b773-782135e282a7}, !- Construction Name
  ExteriorWall,                           !- Intended Surface Type
  Mass;                                   !- Standards Construction Type

OS:Material,
  {34137156-a553-4f29-ba86-267a754e2d1e}, !- Handle
  Wall Insulation [37],                   !- Name
  MediumRough,                            !- Roughness
  0.0680999999999999,                     !- Thickness {m}
  0.0432,                                 !- Conductivity {W/m-K}
  91,                                     !- Density {kg/m3}
  836.999999999999,                       !- Specific Heat {J/kg-K}
  0.9,                                    !- Thermal Absorptance
  0.5,                                    !- Solar Absorptance
  0.5;                                    !- Visible Absorptance

OS:Construction,
  {69e948dd-07a0-4b21-8080-fb8b82c2c73a}, !- Handle
  ASHRAE 189.1-2009 ExtWall Mass ClimateZone 5, !- Name
  ,                                       !- Surface Rendering Name
  {5f434855-d01a-4865-8e34-3b1d6a80dba3}, !- Layer 1
  {f7ab9a20-24ae-4b5c-97c1-67d976d75254}, !- Layer 2
  {f4c68761-f9a9-4053-ad63-e43eb59d2f70}, !- Layer 3
  {dfa9111c-fd5a-4730-a18a-0a8acbd45076}; !- Layer 4

OS:StandardsInformation:Construction,
  {cd1c5b70-2bf2-4aba-894c-b0d648dfbbec}, !- Handle
  {69e948dd-07a0-4b21-8080-fb8b82c2c73a}, !- Construction Name
  ExteriorWall,                           !- Intended Surface Type
  Mass;                                   !- Standards Construction Type

OS:Material,
  {f4c68761-f9a9-4053-ad63-e43eb59d2f70}, !- Handle
  Wall Insulation [40],                   !- Name
  MediumRough,                            !- Roughness
  0.0793999999999999,                     !- Thickness {m}
  0.0432,                                 !- Conductivity {W/m-K}
  91,                                     !- Density {kg/m3}
  836.999999999999,                       !- Specific Heat {J/kg-K}
  0.9,                                    !- Thermal Absorptance
  0.5,                                    !- Solar Absorptance
  0.5;                                    !- Visible Absorptance

OS:Construction,
  {d7380867-5068-4b24-a7d2-4b34df69668d}, !- Handle
  ASHRAE 189.1-2009 ExtWall Mass ClimateZone 6, !- Name
  ,                                       !- Surface Rendering Name
  {5f434855-d01a-4865-8e34-3b1d6a80dba3}, !- Layer 1
  {f7ab9a20-24ae-4b5c-97c1-67d976d75254}, !- Layer 2
  {462aecc3-eef3-47e5-b7a7-01a03bf4caf0}, !- Layer 3
  {dfa9111c-fd5a-4730-a18a-0a8acbd45076}; !- Layer 4

OS:StandardsInformation:Construction,
  {694d094d-917a-4905-940c-f969f74c1621}, !- Handle
  {d7380867-5068-4b24-a7d2-4b34df69668d}, !- Construction Name
  ExteriorWall,                           !- Intended Surface Type
  Mass;                                   !- Standards Construction Type

OS:Material,
  {462aecc3-eef3-47e5-b7a7-01a03bf4caf0}, !- Handle
  Wall Insulation [42],                   !- Name
  MediumRough,                            !- Roughness
  0.0913999999999999,                     !- Thickness {m}
  0.0432,                                 !- Conductivity {W/m-K}
  91,                                     !- Density {kg/m3}
  836.999999999999,                       !- Specific Heat {J/kg-K}
  0.9,                                    !- Thermal Absorptance
  0.5,                                    !- Solar Absorptance
  0.5;                                    !- Visible Absorptance

OS:Construction,
  {9507398c-011e-43b5-bab4-4336320a9750}, !- Handle
  ASHRAE 189.1-2009 ExtWall Mass ClimateZone 7-8, !- Name
  ,                                       !- Surface Rendering Name
  {5f434855-d01a-4865-8e34-3b1d6a80dba3}, !- Layer 1
  {f7ab9a20-24ae-4b5c-97c1-67d976d75254}, !- Layer 2
  {f7666598-2f61-4cfb-9fdc-177543f8b310}, !- Layer 3
  {dfa9111c-fd5a-4730-a18a-0a8acbd45076}; !- Layer 4

OS:StandardsInformation:Construction,
  {26724937-fb2c-4dfb-94da-5be21efc9ae3}, !- Handle
  {9507398c-011e-43b5-bab4-4336320a9750}, !- Construction Name
  ExteriorWall,                           !- Intended Surface Type
  Mass;                                   !- Standards Construction Type

OS:Material,
  {f7666598-2f61-4cfb-9fdc-177543f8b310}, !- Handle
  Wall Insulation [44],                   !- Name
  MediumRough,                            !- Roughness
  0.1104,                                 !- Thickness {m}
  0.0432,                                 !- Conductivity {W/m-K}
  91,                                     !- Density {kg/m3}
  836.999999999999,                       !- Specific Heat {J/kg-K}
  0.9,                                    !- Thermal Absorptance
  0.5,                                    !- Solar Absorptance
  0.5;                                    !- Visible Absorptance

OS:Construction,
  {a9c14bf1-163f-4c55-8a67-ee27dfb35e8b}, !- Handle
  ASHRAE 189.1-2009 ExtWall Mass ClimateZone alt-res 1, !- Name
  ,                                       !- Surface Rendering Name
  {5f434855-d01a-4865-8e34-3b1d6a80dba3}, !- Layer 1
  {f7ab9a20-24ae-4b5c-97c1-67d976d75254}, !- Layer 2
  {952b6b31-2109-4432-babf-22572f308832}, !- Layer 3
  {dfa9111c-fd5a-4730-a18a-0a8acbd45076}; !- Layer 4

OS:StandardsInformation:Construction,
  {0e6fd1c4-84c8-4ab7-90e3-9695638b3a8e}, !- Handle
  {a9c14bf1-163f-4c55-8a67-ee27dfb35e8b}, !- Construction Name
  ExteriorWall,                           !- Intended Surface Type
  Mass;                                   !- Standards Construction Type

OS:Construction,
  {972fb4b8-be61-4493-8f4a-8e3aa253592e}, !- Handle
  ASHRAE 189.1-2009 ExtWall Mass ClimateZone alt-res 2, !- Name
  ,                                       !- Surface Rendering Name
  {5f434855-d01a-4865-8e34-3b1d6a80dba3}, !- Layer 1
  {f7ab9a20-24ae-4b5c-97c1-67d976d75254}, !- Layer 2
  {9426d097-4bc7-4f00-827d-7717527a2316}, !- Layer 3
  {dfa9111c-fd5a-4730-a18a-0a8acbd45076}; !- Layer 4

OS:StandardsInformation:Construction,
  {e795e193-31e1-4c6b-baca-b667a49c38d7}, !- Handle
  {972fb4b8-be61-4493-8f4a-8e3aa253592e}, !- Construction Name
  ExteriorWall,                           !- Intended Surface Type
  Mass;                                   !- Standards Construction Type

OS:Construction,
  {17fd2e46-8172-4320-978e-4a97d60291c7}, !- Handle
  ASHRAE 189.1-2009 ExtWall Mass ClimateZone alt-res 3, !- Name
  ,                                       !- Surface Rendering Name
  {5f434855-d01a-4865-8e34-3b1d6a80dba3}, !- Layer 1
  {f7ab9a20-24ae-4b5c-97c1-67d976d75254}, !- Layer 2
  {34137156-a553-4f29-ba86-267a754e2d1e}, !- Layer 3
  {dfa9111c-fd5a-4730-a18a-0a8acbd45076}; !- Layer 4

OS:StandardsInformation:Construction,
  {07781d44-aca0-4644-85b8-55330801d432}, !- Handle
  {17fd2e46-8172-4320-978e-4a97d60291c7}, !- Construction Name
  ExteriorWall,                           !- Intended Surface Type
  Mass;                                   !- Standards Construction Type

OS:Construction,
  {dcb40026-eb25-43c9-833d-360b0078b663}, !- Handle
  ASHRAE 189.1-2009 ExtWall Mass ClimateZone alt-res 4, !- Name
  ,                                       !- Surface Rendering Name
  {5f434855-d01a-4865-8e34-3b1d6a80dba3}, !- Layer 1
  {f7ab9a20-24ae-4b5c-97c1-67d976d75254}, !- Layer 2
  {f4c68761-f9a9-4053-ad63-e43eb59d2f70}, !- Layer 3
  {dfa9111c-fd5a-4730-a18a-0a8acbd45076}; !- Layer 4

OS:StandardsInformation:Construction,
  {4cf4080d-d39c-49e9-af9b-4e85ed95d9e7}, !- Handle
  {dcb40026-eb25-43c9-833d-360b0078b663}, !- Construction Name
  ExteriorWall,                           !- Intended Surface Type
  Mass;                                   !- Standards Construction Type

OS:Construction,
  {3ec14e57-6c7d-4b78-96cc-7582d0b64008}, !- Handle
  ASHRAE 189.1-2009 ExtWall Mass ClimateZone alt-res 5, !- Name
  ,                                       !- Surface Rendering Name
  {5f434855-d01a-4865-8e34-3b1d6a80dba3}, !- Layer 1
  {f7ab9a20-24ae-4b5c-97c1-67d976d75254}, !- Layer 2
  {462aecc3-eef3-47e5-b7a7-01a03bf4caf0}, !- Layer 3
  {dfa9111c-fd5a-4730-a18a-0a8acbd45076}; !- Layer 4

OS:StandardsInformation:Construction,
  {400fa982-f622-421f-80bf-934016ecf905}, !- Handle
  {3ec14e57-6c7d-4b78-96cc-7582d0b64008}, !- Construction Name
  ExteriorWall,                           !- Intended Surface Type
  Mass;                                   !- Standards Construction Type

OS:Construction,
  {ff17c183-9e30-429a-a059-25fdc2f459d8}, !- Handle
  ASHRAE 189.1-2009 ExtWall Mass ClimateZone alt-res 6, !- Name
  ,                                       !- Surface Rendering Name
  {5f434855-d01a-4865-8e34-3b1d6a80dba3}, !- Layer 1
  {f7ab9a20-24ae-4b5c-97c1-67d976d75254}, !- Layer 2
  {f7666598-2f61-4cfb-9fdc-177543f8b310}, !- Layer 3
  {dfa9111c-fd5a-4730-a18a-0a8acbd45076}; !- Layer 4

OS:StandardsInformation:Construction,
  {e9f1b32d-f1ed-4c0c-a656-6f8cb189a87c}, !- Handle
  {ff17c183-9e30-429a-a059-25fdc2f459d8}, !- Construction Name
  ExteriorWall,                           !- Intended Surface Type
  Mass;                                   !- Standards Construction Type

OS:Construction,
  {e0a909f7-ff4d-4ed9-809b-04927caad341}, !- Handle
  ASHRAE 189.1-2009 ExtWall Mass ClimateZone alt-res 7, !- Name
  ,                                       !- Surface Rendering Name
  {5f434855-d01a-4865-8e34-3b1d6a80dba3}, !- Layer 1
  {f7ab9a20-24ae-4b5c-97c1-67d976d75254}, !- Layer 2
  {f7666598-2f61-4cfb-9fdc-177543f8b310}, !- Layer 3
  {dfa9111c-fd5a-4730-a18a-0a8acbd45076}; !- Layer 4

OS:StandardsInformation:Construction,
  {7e7dff87-56e7-40ef-9aea-60630844ea73}, !- Handle
  {e0a909f7-ff4d-4ed9-809b-04927caad341}, !- Construction Name
  ExteriorWall,                           !- Intended Surface Type