
OS:Version,
  {6451b57d-e59c-40ee-b655-13bed2abaca9}, !- Handle
  2.3.0;                                  !- Version Identifier

OS:Construction,
  {04285258-a4a0-4da4-94f3-bf24ed5cee64}, !- Handle
  ASHRAE 189.1-2009 AtticFloor ClimateZone 1-8, !- Name
  ,                                       !- Surface Rendering Name
  {4230382e-72e1-41dd-90f3-3b08c09fc346}, !- Layer 1
  {fa66804e-9b47-4209-8491-12ffebd30a1d}, !- Layer 2
  {4230382e-72e1-41dd-90f3-3b08c09fc346}; !- Layer 3

OS:StandardsInformation:Construction,
  {81efa8de-0801-4097-895c-b8affe0a4f73}, !- Handle
  {04285258-a4a0-4da4-94f3-bf24ed5cee64}, !- Construction Name
  AtticFloor,                             !- Intended Surface Type
  WoodFramed,                             !- Standards Construction Type
  ,                                       !- Perturbable Layer
  ,                                       !- Perturbable Layer Type
  ,                                       !- Other Perturbable Layer Type
  ASHRAE 189.1-2009;                      !- Construction Standard

OS:Material,
  {4230382e-72e1-41dd-90f3-3b08c09fc346}, !- Handle
  1/2IN Gypsum,                           !- Name
  Smooth,                                 !- Roughness
  0.0127,                                 !- Thickness {m}
  0.16,                                   !- Conductivity {W/m-K}
  784.9,                                  !- Density {kg/m3}
  830.000000000001,                       !- Specific Heat {J/kg-K}
  0.9,                                    !- Thermal Absorptance
  0.4,                                    !- Solar Absorptance
  0.4;                                    !- Visible Absorptance

OS:StandardsInformation:Material,
  {0b91f80e-88a0-44cb-a507-8c10bb0bea25}, !- Handle
  {4230382e-72e1-41dd-90f3-3b08c09fc346}; !- Material Name

OS:Material,
  {fa66804e-9b47-4209-8491-12ffebd30a1d}, !- Handle
  AtticFloor Insulation,                  !- Name
  MediumRough,                            !- Roughness
  0.2379,                                 !- Thickness {m}
  0.049,                                  !- Conductivity {W/m-K}
  265,                                    !- Density {kg/m3}
  836.800000000001,                       !- Specific Heat {J/kg-K}
  0.9,                                    !- Thermal Absorptance
  0.7,                                    !- Solar Absorptance
  0.7;                                    !- Visible Absorptance

OS:StandardsInformation:Material,
  {75f78150-049c-4fa9-ac94-f2bd01a3da97}, !- Handle
  {fa66804e-9b47-4209-8491-12ffebd30a1d}; !- Material Name

OS:Construction,
  {a56dff89-79e6-48d9-a4f1-d8d85aaf2ead}, !- Handle
  ASHRAE 189.1-2009 ExtRoof IEAD ClimateZone 1, !- Name
  ,                                       !- Surface Rendering Name
  {1638925f-e908-4891-bc90-c3f06744bf19}, !- Layer 1
  {1550504f-3ee9-42eb-9793-36f64a225e78}, !- Layer 2
  {a31e4349-feab-469b-93e1-b6e1cc5cbc63}; !- Layer 3

OS:StandardsInformation:Construction,
  {1cb84e15-7e3a-4b1a-aa7d-036d4e9fc407}, !- Handle
  {a56dff89-79e6-48d9-a4f1-d8d85aaf2ead}, !- Construction Name
  ExteriorRoof,                           !- Intended Surface Type
  IEAD,                                   !- Standards Construction Type
  ,                                       !- Perturbable Layer
  ,                                       !- Perturbable Layer Type
  ,                                       !- Other Perturbable Layer Type
  ASHRAE 189.1-2009;                      !- Construction Standard

OS:Material,
  {1638925f-e908-4891-bc90-c3f06744bf19}, !- Handle
  Roof Membrane,                          !- Name
  VeryRough,                              !- Roughness
  0.0095,                                 !- Thickness {m}
  0.16,                                   !- Conductivity {W/m-K}
  1121.29,                                !- Density {kg/m3}
  1460,                                   !- Specific Heat {J/kg-K}
  0.9,                                    !- Thermal Absorptance
  0.7,                                    !- Solar Absorptance
  0.7;                                    !- Visible Absorptance

OS:StandardsInformation:Material,
  {6a14505a-ce84-4c16-998e-a47c75d859fc}, !- Handle
  {1638925f-e908-4891-bc90-c3f06744bf19}; !- Material Name

OS:Material,
  {1550504f-3ee9-42eb-9793-36f64a225e78}, !- Handle
  Roof Insulation [18],                   !- Name
  MediumRough,                            !- Roughness
  0.1693,                                 !- Thickness {m}
  0.049,                                  !- Conductivity {W/m-K}
  265,                                    !- Density {kg/m3}
  836.800000000001,                       !- Specific Heat {J/kg-K}
  0.9,                                    !- Thermal Absorptance
  0.7,                                    !- Solar Absorptance
  0.7;                                    !- Visible Absorptance

OS:StandardsInformation:Material,
  {f6a25ea7-72e6-4ec6-94c4-12b9e09f3717}, !- Handle
  {1550504f-3ee9-42eb-9793-36f64a225e78}; !- Material Name

OS:Material,
  {a31e4349-feab-469b-93e1-b6e1cc5cbc63}, !- Handle
  Metal Decking,                          !- Name
  MediumSmooth,                           !- Roughness
  0.0015,                                 !- Thickness {m}
  45.006,                                 !- Conductivity {W/m-K}
  7680,                                   !- Density {kg/m3}
  418.4,                                  !- Specific Heat {J/kg-K}
  0.9,                                    !- Thermal Absorptance
  0.6,                                    !- Solar Absorptance
  0.6;                                    !- Visible Absorptance

OS:StandardsInformation:Material,
  {4cb61413-ff4d-4516-9dca-b79a9cee3475}, !- Handle
  {a31e4349-feab-469b-93e1-b6e1cc5cbc63}; !- Material Name

OS:Construction,
  {c35b4651-f1bf-49cc-9258-cb62fc720c70}, !- Handle
  ASHRAE 189.1-2009 ExtRoof IEAD ClimateZone 2-5, !- Name
  ,                                       !- Surface Rendering Name
  {1638925f-e908-4891-bc90-c3f06744bf19}, !- Layer 1
  {c8ba3ba1-ed04-4d07-8181-fd2144a94b70}, !- Layer 2
  {a31e4349-feab-469b-93e1-b6e1cc5cbc63}; !- Layer 3

OS:StandardsInformation:Construction,
  {2e982752-e651-4c03-92cd-2476ed057bef}, !- Handle
  {c35b4651-f1bf-49cc-9258-cb62fc720c70}, !- Construction Name
  ExteriorRoof,                           !- Intended Surface Type
  IEAD,                                   !- Standards Construction Type
  ,                                       !- Perturbable Layer
  ,                                       !- Perturbable Layer Type
  ,                                       !- Other Perturbable Layer Type
  ASHRAE 189.1-2009;                      !- Construction Standard

OS:Material,
  {c8ba3ba1-ed04-4d07-8181-fd2144a94b70}, !- Handle
  Roof Insulation [21],                   !- Name
  MediumRough,                            !- Roughness
  0.2105,                                 !- Thickness {m}
  0.049,                                  !- Conductivity {W/m-K}
  265,                                    !- Density {kg/m3}
  836.800000000001,                       !- Specific Heat {J/kg-K}
  0.9,                                    !- Thermal Absorptance
  0.7,                                    !- Solar Absorptance
  0.7;                                    !- Visible Absorptance

OS:StandardsInformation:Material,
  {5f753083-2767-4b4b-be83-354165803fe3}, !- Handle
  {c8ba3ba1-ed04-4d07-8181-fd2144a94b70}; !- Material Name

OS:Construction,
  {c8457a56-9cfa-44f3-a801-529cb40f798b}, !- Handle
  ASHRAE 189.1-2009 ExtRoof IEAD ClimateZone 6, !- Name
  ,                                       !- Surface Rendering Name
  {1638925f-e908-4891-bc90-c3f06744bf19}, !- Layer 1
  {1ff2834e-282c-4988-b119-9aff03cf06a4}, !- Layer 2
  {a31e4349-feab-469b-93e1-b6e1cc5cbc63}; !- Layer 3

OS:StandardsInformation:Construction,
  {dcfc70bd-4d8f-4399-9f84-be35d8dc40c6}, !- Handle
  {c8457a56-9cfa-44f3-a801-529cb40f798b}, !- Construction Name
  ExteriorRoof,                           !- Intended Surface Type
  IEAD,                                   !- Standards Construction Type
  ,                                       !- Perturbable Layer
  ,                                       !- Perturbable Layer Type
  ,                                       !- Other Perturbable Layer Type
  ASHRAE 189.1-2009;                      !- Construction Standard

OS:Material,
  {1ff2834e-282c-4988-b119-9aff03cf06a4}, !- Handle
  Roof Insulation [24],                   !- Name
  MediumRough,                            !- Roughness
  0.260100000000001,                      !- Thickness {m}
  0.049,                                  !- Conductivity {W/m-K}
  265,                                    !- Density {kg/m3}
  836.800000000001,                       !- Specific Heat {J/kg-K}
  0.9,                                    !- Thermal Absorptance
  0.7,                                    !- Solar Absorptance
  0.7;                                    !- Visible Absorptance

OS:StandardsInformation:Material,
  {6d61ff02-7c5d-43f3-9d53-e7c3f636fe40}, !- Handle
  {1ff2834e-282c-4988-b119-9aff03cf06a4}; !- Material Name

OS:Construction,
  {a198173c-9663-4dd5-b412-46edfe6859c1}, !- Handle
  ASHRAE 189.1-2009 ExtRoof IEAD ClimateZone 7-8, !- Name
  ,                                       !- Surface Rendering Name
  {1638925f-e908-4891-bc90-c3f06744bf19}, !- Layer 1
  {97d3f212-b477-40f2-b3a0-844b7292f90a}, !- Layer 2
  {a31e4349-feab-469b-93e1-b6e1cc5cbc63}; !- Layer 3

OS:StandardsInformation:Construction,
  {af71687c-bdae-4f32-88e5-01a66a994303}, !- Handle
  {a198173c-9663-4dd5-b412-46edfe6859c1}, !- Construction Name
  ExteriorRoof,                           !- Intended Surface Type
  IEAD,                                   !- Standards Construction Type
  ,                                       !- Perturbable Layer
  ,                                       !- Perturbable Layer Type
  ,                                       !- Other Perturbable Layer Type
  ASHRAE 189.1-2009;                      !- Construction Standard

OS:Material,
  {97d3f212-b477-40f2-b3a0-844b7292f90a}, !- Handle
  Roof Insulation [26],                   !- Name
  MediumRough,                            !- Roughness
  0.2941,                                 !- Thickness {m}
  0.049,                                  !- Conductivity {W/m-K}
  265,                                    !- Density {kg/m3}
  836.800000000001,                       !- Specific Heat {J/kg-K}
  0.9,                                    !- Thermal Absorptance
  0.7,                                    !- Solar Absorptance
  0.7;                                    !- Visible Absorptance

OS:StandardsInformation:Material,
  {9914394d-7f6d-4f7c-a796-788c58509775}, !- Handle
  {97d3f212-b477-40f2-b3a0-844b7292f90a}; !- Material Name

OS:Construction,
  {4fa5d2b1-9c19-40d9-a441-29b309cd01d8}, !- Handle
  ASHRAE 189.1-2009 ExtRoof Metal ClimateZone 1, !- Name
  ,                                       !- Surface Rendering Name
  {c3100a76-29e2-4f57-bfb3-de2d9edbb87c}, !- Layer 1
  {56114418-67bb-42ba-bb16-065ae671da07}, !- Layer 2
  {a31e4349-feab-469b-93e1-b6e1cc5cbc63}; !- Layer 3

OS:StandardsInformation:Construction,
  {aa240ca3-794e-4f3b-a4eb-54e2d9d2ab7e}, !- Handle
  {4fa5d2b1-9c19-40d9-a441-29b309cd01d8}, !- Construction Name
  ExteriorRoof,                           !- Intended Surface Type
  Metal,                                  !- Standards Construction Type
  ,                                       !- Perturbable Layer
  ,                                       !- Perturbable Layer Type
  ,                                       !- Other Perturbable Layer Type
  ASHRAE 189.1-2009;                      !- Construction Standard

OS:Material,
  {c3100a76-29e2-4f57-bfb3-de2d9edbb87c}, !- Handle
  Metal Roofing,                          !- Name
  MediumSmooth,                           !- Roughness
  0.0015,                                 !- Thickness {m}
  45.006,                                 !- Conductivity {W/m-K}
  7680,                                   !- Density {kg/m3}
  418.4,                                  !- Specific Heat {J/kg-K}
  0.9,                                    !- Thermal Absorptance
  0.6,                                    !- Solar Absorptance
  0.6;                                    !- Visible Absorptance

OS:StandardsInformation:Material,
  {fff8aefb-10a6-420a-b6ce-24aa60283505}, !- Handle
  {c3100a76-29e2-4f57-bfb3-de2d9edbb87c}; !- Material Name

OS:Material,
  {56114418-67bb-42ba-bb16-065ae671da07}, !- Handle
  Roof Insulation [19],                   !- Name
  MediumRough,                            !- Roughness
  0.1868,                                 !- Thickness {m}
  0.049,                                  !- Conductivity {W/m-K}
  265,                                    !- Density {kg/m3}
  836.800000000001,                       !- Specific Heat {J/kg-K}
  0.9,                                    !- Thermal Absorptance
  0.7,                                    !- Solar Absorptance
  0.7;                                    !- Visible Absorptance

OS:StandardsInformation:Material,
  {609f2cec-ee1e-43b1-a3ce-167c570968b2}, !- Handle
  {56114418-67bb-42ba-bb16-065ae671da07}; !- Material Name

OS:Construction,
  {4a08232d-758c-44a4-935e-1018323ac50b}, !- Handle
  ASHRAE 189.1-2009 ExtRoof Metal ClimateZone 2-5, !- Name
  ,                                       !- Surface Rendering Name
  {c3100a76-29e2-4f57-bfb3-de2d9edbb87c}, !- Layer 1
  {0b3ad4f1-eb3c-4b2d-9a2e-90602e2d8a0b}, !- Layer 2
  {a31e4349-feab-469b-93e1-b6e1cc5cbc63}; !- Layer 3

OS:StandardsInformation:Construction,
  {2dc0c0a5-727b-491f-929c-864cf64b823f}, !- Handle
  {4a08232d-758c-44a4-935e-1018323ac50b}, !- Construction Name
  ExteriorRoof,                           !- Intended Surface Type
  Metal,                                  !- Standards Construction Type
  ,                                       !- Perturbable Layer
  ,                                       !- Perturbable Layer Type
  ,                                       !- Other Perturbable Layer Type
  ASHRAE 189.1-2009;                      !- Construction Standard

OS:Material,
  {0b3ad4f1-eb3c-4b2d-9a2e-90602e2d8a0b}, !- Handle
  Roof Insulation [22],                   !- Name
  MediumRough,                            !- Roughness
  0.2358,                                 !- Thickness {m}
  0.049,                                  !- Conductivity {W/m-K}
  265,                                    !- Density {kg/m3}
  836.800000000001,                       !- Specific Heat {J/kg-K}
  0.9,                                    !- Thermal Absorptance
  0.7,                                    !- Solar Absorptance
  0.7;                                    !- Visible Absorptance

OS:StandardsInformation:Material,
  {45230a74-1843-4365-a2ed-4ceaacbcf7fb}, !- Handle
  {0b3ad4f1-eb3c-4b2d-9a2e-90602e2d8a0b}; !- Material Name

OS:Construction,
  {ddc05a61-32b9-48fb-b483-86de14586ac6}, !- Handle
  ASHRAE 189.1-2009 ExtRoof Metal ClimateZone 6, !- Name
  ,                                       !- Surface Rendering Name
  {c3100a76-29e2-4f57-bfb3-de2d9edbb87c}, !- Layer 1
  {afe7ca4d-93ad-43ee-9693-eab6906952c7}, !- Layer 2
  {a31e4349-feab-469b-93e1-b6e1cc5cbc63}; !- Layer 3

OS:StandardsInformation:Construction,
  {b8e2ad23-328c-436c-8428-90ce5ef01747}, !- Handle
  {ddc05a61-32b9-48fb-b483-86de14586ac6}, !- Construction Name
  ExteriorRoof,                           !- Intended Surface Type
  Metal,                                  !- Standards Construction Type
  ,                                       !- Perturbable Layer
  ,                                       !- Perturbable Layer Type
  ,                                       !- Other Perturbable Layer Type
  ASHRAE 189.1-2009;                      !- Construction Standard

OS:Material,
  {afe7ca4d-93ad-43ee-9693-eab6906952c7}, !- Handle
  Roof Insulation [25],                   !- Name
  MediumRough,                            !- Roughness
  0.263,                                  !- Thickness {m}
  0.049,                                  !- Conductivity {W/m-K}
  265,                                    !- Density {kg/m3}
  836.800000000001,                       !- Specific Heat {J/kg-K}
  0.9,                                    !- Thermal Absorptance
  0.7,                                    !- Solar Absorptance
  0.7;                                    !- Visible Absorptance

OS:StandardsInformation:Material,
  {89451bdc-2510-448d-b941-5edff40b4aa2}, !- Handle
  {afe7ca4d-93ad-43ee-9693-eab6906952c7}; !- Material Name

OS:Construction,
  {e63a8c19-39b3-4642-a8a4-f4a70526a7ec}, !- Handle
  ASHRAE 189.1-2009 ExtRoof Metal ClimateZone 7-8, !- Name
  ,                                       !- Surface Rendering Name
  {c3100a76-29e2-4f57-bfb3-de2d9edbb87c}, !- Layer 1
  {83aa749e-04b0-4bad-a176-532cb9a8f76e}, !- Layer 2
  {a31e4349-feab-469b-93e1-b6e1cc5cbc63}; !- Layer 3

OS:StandardsInformation:Construction,
  {c9c24766-7f45-4722-bb3c-d9f6fb58feff}, !- Handle
  {e63a8c19-39b3-4642-a8a4-f4a70526a7ec}, !- Construction Name
  ExteriorRoof,                           !- Intended Surface Type
  Metal,                                  !- Standards Construction Type
  ,                                       !- Perturbable Layer
  ,                                       !- Perturbable Layer Type
  ,                                       !- Other Perturbable Layer Type
  ASHRAE 189.1-2009;                      !- Construction Standard

OS:Material,
  {83aa749e-04b0-4bad-a176-532cb9a8f76e}, !- Handle
  Roof Insulation [27],                   !- Name
  MediumRough,                            !- Roughness
  0.297000000000001,                      !- Thickness {m}
  0.049,                                  !- Conductivity {W/m-K}
  265,                                    !- Density {kg/m3}
  836.800000000001,                       !- Specific Heat {J/kg-K}
  0.9,                                    !- Thermal Absorptance
  0.7,                                    !- Solar Absorptance
  0.7;                                    !- Visible Absorptance

OS:StandardsInformation:Material,
  {bdd35ba3-fe24-43a6-ba47-bed4745b80ed}, !- Handle
  {83aa749e-04b0-4bad-a176-532cb9a8f76e}; !- Material Name

OS:Construction,
  {ca9fc920-dd54-4075-99be-2fb27da4c931}, !- Handle
  ASHRAE 189.1-2009 ExtWall Mass ClimateZone 1, !- Name
  ,                                       !- Surface Rendering Name
  {4bc8cc62-600a-4660-bc50-6ebf8d8bbc61}, !- Layer 1
  {6549ecc2-17e4-4e81-a6c3-09ec251fe38a}, !- Layer 2
  {26feb53c-a1b0-4d84-bfb7-e185696d96ec}, !- Layer 3
  {4230382e-72e1-41dd-90f3-3b08c09fc346}; !- Layer 4

OS:StandardsInformation:Construction,
  {1c88717e-38d2-4022-9910-dd1c1e0cf71b}, !- Handle
  {ca9fc920-dd54-4075-99be-2fb27da4c931}, !- Construction Name
  ExteriorWall,                           !- Intended Surface Type
  Mass,                                   !- Standards Construction Type
  ,                                       !- Perturbable Layer
  ,                                       !- Perturbable Layer Type
  ,                                       !- Other Perturbable Layer Type
  ASHRAE 189.1-2009;                      !- Construction Standard

OS:Material,
  {4bc8cc62-600a-4660-bc50-6ebf8d8bbc61}, !- Handle
  1IN Stucco,                             !- Name
  Smooth,                                 !- Roughness
  0.0253,                                 !- Thickness {m}
  0.691799999999999,                      !- Conductivity {W/m-K}
  1858,                                   !- Density {kg/m3}
  836.999999999999,                       !- Specific Heat {J/kg-K}
  0.9,                                    !- Thermal Absorptance
  0.92,                                   !- Solar Absorptance
  0.92;                                   !- Visible Absorptance

OS:StandardsInformation:Material,
  {92d8f847-ea01-41e1-b351-0621c1cdbb90}, !- Handle
  {4bc8cc62-600a-4660-bc50-6ebf8d8bbc61}; !- Material Name

OS:Material,
  {6549ecc2-17e4-4e81-a6c3-09ec251fe38a}, !- Handle
  8IN Concrete HW,                        !- Name
  MediumRough,                            !- Roughness
  0.2033,                                 !- Thickness {m}
  1.72959999999999,                       !- Conductivity {W/m-K}
  2242.99999999999,                       !- Density {kg/m3}
  836.999999999999,                       !- Specific Heat {J/kg-K}
  0.9,                                    !- Thermal Absorptance
  0.65,                                   !- Solar Absorptance
  0.65;                                   !- Visible Absorptance

OS:StandardsInformation:Material,
  {fc51d12b-f038-4636-bb90-6da4eed57183}, !- Handle
  {6549ecc2-17e4-4e81-a6c3-09ec251fe38a}; !- Material Name

OS:Material,
  {26feb53c-a1b0-4d84-bfb7-e185696d96ec}, !- Handle
  Wall Insulation [31],                   !- Name
  MediumRough,                            !- Roughness
  0.0337000000000001,                     !- Thickness {m}
  0.0432,                                 !- Conductivity {W/m-K}
  91,                                     !- Density {kg/m3}
  836.999999999999,                       !- Specific Heat {J/kg-K}
  0.9,                                    !- Thermal Absorptance
  0.5,                                    !- Solar Absorptance
  0.5;                                    !- Visible Absorptance

OS:StandardsInformation:Material,
  {aa3a5e79-3f41-4b06-bd2b-78a4e8bd5de6}, !- Handle
  {26feb53c-a1b0-4d84-bfb7-e185696d96ec}; !- Material Name

OS:Construction,
  {5f7a504b-5ca0-4701-a66c-b6e9c9d26fb1}, !- Handle
  ASHRAE 189.1-2009 ExtWall Mass ClimateZone 2, !- Name
  ,                                       !- Surface Rendering Name
  {4bc8cc62-600a-4660-bc50-6ebf8d8bbc61}, !- Layer 1
  {6549ecc2-17e4-4e81-a6c3-09ec251fe38a}, !- Layer 2
  {63c6fc42-ff0a-492e-87db-5b271b7ce2d7}, !- Layer 3
  {4230382e-72e1-41dd-90f3-3b08c09fc346}; !- Layer 4

OS:StandardsInformation:Construction,
  {15bdb9b0-8219-4f9d-a729-a3784c7377e1}, !- Handle
  {5f7a504b-5ca0-4701-a66c-b6e9c9d26fb1}, !- Construction Name
  ExteriorWall,                           !- Intended Surface Type
  Mass,                                   !- Standards Construction Type
  ,                                       !- Perturbable Layer
  ,                                       !- Perturbable Layer Type
  ,                                       !- Other Perturbable Layer Type
  ASHRAE 189.1-2009;                      !- Construction Standard

OS:Material,
  {63c6fc42-ff0a-492e-87db-5b271b7ce2d7}, !- Handle
  Wall Insulation [35],                   !- Name
  MediumRough,                            !- Roughness
  0.0452,                                 !- Thickness {m}
  0.0432,                                 !- Conductivity {W/m-K}
  91,                                     !- Density {kg/m3}
  836.999999999999,                       !- Specific Heat {J/kg-K}
  0.9,                                    !- Thermal Absorptance
  0.5,                                    !- Solar Absorptance
  0.5;                                    !- Visible Absorptance

OS:StandardsInformation:Material,
  {19b772af-b461-4e44-9252-49eb80f3fb67}, !- Handle
  {63c6fc42-ff0a-492e-87db-5b271b7ce2d7}; !- Material Name

OS:Construction,
  {3ca1a18e-661c-4e44-9ffe-cb2b7d397639}, !- Handle
  ASHRAE 189.1-2009 ExtWall Mass ClimateZone 3, !- Name
  ,                                       !- Surface Rendering Name
  {4bc8cc62-600a-4660-bc50-6ebf8d8bbc61}, !- Layer 1
  {6549ecc2-17e4-4e81-a6c3-09ec251fe38a}, !- Layer 2
  {27074a8f-57b9-4ee3-82a2-e62736782ffa}, !- Layer 3
  {4230382e-72e1-41dd-90f3-3b08c09fc346}; !- Layer 4

OS:StandardsInformation:Construction,
  {de097a2b-a137-44b9-80a6-7a43901978c6}, !- Handle
  {3ca1a18e-661c-4e44-9ffe-cb2b7d397639}, !- Construction Name
  ExteriorWall,                           !- Intended Surface Type
  Mass,                                   !- Standards Construction Type
  ,                                       !- Perturbable Layer
  ,                                       !- Perturbable Layer Type
  ,                                       !- Other Perturbable Layer Type
  ASHRAE 189.1-2009;                      !- Construction Standard

OS:Material,
  {27074a8f-57b9-4ee3-82a2-e62736782ffa}, !- Handle
  Wall Insulation [36],                   !- Name
  MediumRough,                            !- Roughness
  0.0565999999999999,                     !- Thickness {m}
  0.0432,                                 !- Conductivity {W/m-K}
  91,                                     !- Density {kg/m3}
  836.999999999999,                       !- Specific Heat {J/kg-K}
  0.9,                                    !- Thermal Absorptance
  0.5,                                    !- Solar Absorptance
  0.5;                                    !- Visible Absorptance

OS:StandardsInformation:Material,
  {5f77a350-ec80-47fb-8abc-a467b3952db7}, !- Handle
  {27074a8f-57b9-4ee3-82a2-e62736782ffa}; !- Material Name

OS:Construction,
  {314dd665-c351-4eb2-b3dd-0b4f74429bbc}, !- Handle
  ASHRAE 189.1-2009 ExtWall Mass ClimateZone 4, !- Name
  ,                                       !- Surface Rendering Name
  {4bc8cc62-600a-4660-bc50-6ebf8d8bbc61}, !- Layer 1
  {6549ecc2-17e4-4e81-a6c3-09ec251fe38a}, !- Layer 2
  {6d8c17bf-865b-415b-922f-9717c0525603}, !- Layer 3
  {4230382e-72e1-41dd-90f3-3b08c09fc346}; !- Layer 4

OS:StandardsInformation:Construction,
  {60792db6-2924-464a-b197-e786df68d507}, !- Handle
  {314dd665-c351-4eb2-b3dd-0b4f74429bbc}, !- Construction Name
  ExteriorWall,                           !- Intended Surface Type
  Mass,                                   !- Standards Construction Type
  ,                                       !- Perturbable Layer
  ,                                       !- Perturbable Layer Type
  ,                                       !- Other Perturbable Layer Type
  ASHRAE 189.1-2009;                      !- Construction Standard

OS:Material,
  {6d8c17bf-865b-415b-922f-9717c0525603}, !- Handle
  Wall Insulation [37],                   !- Name
  MediumRough,                            !- Roughness
  0.0680999999999999,                     !- Thickness {m}
  0.0432,                                 !- Conductivity {W/m-K}
  91,                                     !- Density {kg/m3}
  836.999999999999,                       !- Specific Heat {J/kg-K}
  0.9,                                    !- Thermal Absorptance
  0.5,                                    !- Solar Absorptance
  0.5;                                    !- Visible Absorptance

OS:StandardsInformation:Material,
  {6380010f-5cc3-4ea9-970a-8631404ff85b}, !- Handle
  {6d8c17bf-865b-415b-922f-9717c0525603}; !- Material Name

OS:Construction,
  {2633ba36-963a-46c4-aa90-4da8181f79d8}, !- Handle
  ASHRAE 189.1-2009 ExtWall Mass ClimateZone 5, !- Name
  ,                                       !- Surface Rendering Name
  {4bc8cc62-600a-4660-bc50-6ebf8d8bbc61}, !- Layer 1
  {6549ecc2-17e4-4e81-a6c3-09ec251fe38a}, !- Layer 2
  {4a45d52f-2699-4c5c-9363-b4c5736fbf45}, !- Layer 3
  {4230382e-72e1-41dd-90f3-3b08c09fc346}; !- Layer 4

OS:StandardsInformation:Construction,
  {ff4286f8-30a3-436b-908b-8b4d3722a1a4}, !- Handle
  {2633ba36-963a-46c4-aa90-4da8181f79d8}, !- Construction Name
  ExteriorWall,                           !- Intended Surface Type
  Mass,                                   !- Standards Construction Type
  ,                                       !- Perturbable Layer
  ,                                       !- Perturbable Layer Type
  ,                                       !- Other Perturbable Layer Type
  ASHRAE 189.1-2009;                      !- Construction Standard

OS:Material,
  {4a45d52f-2699-4c5c-9363-b4c5736fbf45}, !- Handle
  Wall Insulation [40],                   !- Name
  MediumRough,                            !- Roughness
  0.0793999999999999,                     !- Thickness {m}
  0.0432,                                 !- Conductivity {W/m-K}
  91,                                     !- Density {kg/m3}
  836.999999999999,                       !- Specific Heat {J/kg-K}
  0.9,                                    !- Thermal Absorptance
  0.5,                                    !- Solar Absorptance
  0.5;                                    !- Visible Absorptance

OS:StandardsInformation:Material,
  {c8821f5f-f24f-48d2-bc9f-82af26549485}, !- Handle
  {4a45d52f-2699-4c5c-9363-b4c5736fbf45}; !- Material Name

OS:Construction,
  {f55fcdf1-9934-46fa-bdbc-5fa3d500f52d}, !- Handle
  ASHRAE 189.1-2009 ExtWall Mass ClimateZone 6, !- Name
  ,                                       !- Surface Rendering Name
  {4bc8cc62-600a-4660-bc50-6ebf8d8bbc61}, !- Layer 1
  {6549ecc2-17e4-4e81-a6c3-09ec251fe38a}, !- Layer 2
  {90c5ca3b-2bce-4ed4-8f96-68e594fd4cc7}, !- Layer 3
  {4230382e-72e1-41dd-90f3-3b08c09fc346}; !- Layer 4

OS:StandardsInformation:Construction,
  {a6190651-caa5-4370-b2b9-be664378ab42}, !- Handle
  {f55fcdf1-9934-46fa-bdbc-5fa3d500f52d}, !- Construction Name
  ExteriorWall,                           !- Intended Surface Type
  Mass,                                   !- Standards Construction Type
  ,                                       !- Perturbable Layer
  ,                                       !- Perturbable Layer Type
  ,                                       !- Other Perturbable Layer Type
  ASHRAE 189.1-2009;                      !- Construction Standard

OS:Material,
  {90c5ca3b-2bce-4ed4-8f96-68e594fd4cc7}, !- Handle
  Wall Insulation [42],                   !- Name
  MediumRough,                            !- Roughness
  0.0913999999999999,                     !- Thickness {m}
  0.0432,                                 !- Conductivity {W/m-K}
  91,                                     !- Density {kg/m3}
  836.999999999999,                       !- Specific Heat {J/kg-K}