
OS:Version,
  {87476391-6ba7-4fbc-8c04-c11a13b482fc}, !- Handle
  1.3.3;                                  !- Version Identifier

OS:Construction,
  {9de9610e-2d46-4687-b632-01e6901a9545}, !- Handle
  ASHRAE 189.1-2009 AtticFloor ClimateZone 1-8, !- Name
  ,                                       !- Surface Rendering Name
  {478cc09f-04f5-4f59-97da-d065932b2166}, !- Layer 1
  {948efdf9-c27c-4789-9bdf-616cb2e868a5}, !- Layer 2
  {478cc09f-04f5-4f59-97da-d065932b2166}; !- Layer 3

OS:StandardsInformation:Construction,
  {5ce8b55f-5bc2-4a26-b56a-f98d829e8af3}, !- Handle
  {9de9610e-2d46-4687-b632-01e6901a9545}, !- Construction Name
  AtticFloor,                             !- Intended Surface Type
  WoodFramed;                             !- Standards Construction Type

OS:Material,
  {478cc09f-04f5-4f59-97da-d065932b2166}, !- Handle
  1/2IN Gypsum,                           !- Name
  Smooth,                                 !- Roughness
  0.0127,                                 !- Thickness {m}
  0.16,                                   !- Conductivity {W/m-K}
  784.9,                                  !- Density {kg/m3}
  830.000000000001,                       !- Specific Heat {J/kg-K}
  0.9,                                    !- Thermal Absorptance
  0.92,                                   !- Solar Absorptance
  0.92;                                   !- Visible Absorptance

OS:Material,
  {948efdf9-c27c-4789-9bdf-616cb2e868a5}, !- Handle
  AtticFloor Insulation,                  !- Name
  MediumRough,                            !- Roughness
  0.2379,                                 !- Thickness {m}
  0.049,                                  !- Conductivity {W/m-K}
  265,                                    !- Density {kg/m3}
  836.800000000001,                       !- Specific Heat {J/kg-K}
  0.9,                                    !- Thermal Absorptance
  0.7,                                    !- Solar Absorptance
  0.7;                                    !- Visible Absorptance

OS:Construction,
  {46574b19-7e1d-4bf7-825d-b41482485843}, !- Handle
  ASHRAE 189.1-2009 ExtRoof IEAD ClimateZone 1, !- Name
  ,                                       !- Surface Rendering Name
  {5eeca1a9-b5f2-4985-9de2-e2f7ce2b2f3c}, !- Layer 1
  {6245c365-2a8e-420b-a390-715ac46679f6}, !- Layer 2
  {fd032b72-cf10-4bf8-be99-44b2577866ec}; !- Layer 3

OS:StandardsInformation:Construction,
  {369bedff-d30a-4f4e-9675-d42e2862e45a}, !- Handle
  {46574b19-7e1d-4bf7-825d-b41482485843}, !- Construction Name
  ExteriorRoof,                           !- Intended Surface Type
  IEAD;                                   !- Standards Construction Type

OS:Material,
  {5eeca1a9-b5f2-4985-9de2-e2f7ce2b2f3c}, !- Handle
  Roof Membrane,                          !- Name
  VeryRough,                              !- Roughness
  0.0095,                                 !- Thickness {m}
  0.16,                                   !- Conductivity {W/m-K}
  1121.29,                                !- Density {kg/m3}
  1460,                                   !- Specific Heat {J/kg-K}
  0.9,                                    !- Thermal Absorptance
  0.7,                                    !- Solar Absorptance
  0.7;                                    !- Visible Absorptance

OS:Material,
  {6245c365-2a8e-420b-a390-715ac46679f6}, !- Handle
  Roof Insulation [18],                   !- Name
  MediumRough,                            !- Roughness
  0.1693,                                 !- Thickness {m}
  0.049,                                  !- Conductivity {W/m-K}
  265,                                    !- Density {kg/m3}
  836.800000000001,                       !- Specific Heat {J/kg-K}
  0.9,                                    !- Thermal Absorptance
  0.7,                                    !- Solar Absorptance
  0.7;                                    !- Visible Absorptance

OS:Material,
  {fd032b72-cf10-4bf8-be99-44b2577866ec}, !- Handle
  Metal Decking,                          !- Name
  MediumSmooth,                           !- Roughness
  0.0015,                                 !- Thickness {m}
  45.006,                                 !- Conductivity {W/m-K}
  7680,                                   !- Density {kg/m3}
  418.4,                                  !- Specific Heat {J/kg-K}
  0.9,                                    !- Thermal Absorptance
  0.7,                                    !- Solar Absorptance
  0.3;                                    !- Visible Absorptance

OS:Construction,
  {e57992f3-551f-4f31-b26d-7e144046feee}, !- Handle
  ASHRAE 189.1-2009 ExtRoof IEAD ClimateZone 2-5, !- Name
  ,                                       !- Surface Rendering Name
  {5eeca1a9-b5f2-4985-9de2-e2f7ce2b2f3c}, !- Layer 1
  {6fd4080d-d8ac-4835-9383-1a43e16f450f}, !- Layer 2
  {fd032b72-cf10-4bf8-be99-44b2577866ec}; !- Layer 3

OS:StandardsInformation:Construction,
  {3520667a-4286-486e-82e3-ca6582fa9c19}, !- Handle
  {e57992f3-551f-4f31-b26d-7e144046feee}, !- Construction Name
  ExteriorRoof,                           !- Intended Surface Type
  IEAD;                                   !- Standards Construction Type

OS:Material,
  {6fd4080d-d8ac-4835-9383-1a43e16f450f}, !- Handle
  Roof Insulation [21],                   !- Name
  MediumRough,                            !- Roughness
  0.2105,                                 !- Thickness {m}
  0.049,                                  !- Conductivity {W/m-K}
  265,                                    !- Density {kg/m3}
  836.800000000001,                       !- Specific Heat {J/kg-K}
  0.9,                                    !- Thermal Absorptance
  0.7,                                    !- Solar Absorptance
  0.7;                                    !- Visible Absorptance

OS:Construction,
  {622eab72-24a2-40e7-900c-9d9a8b648500}, !- Handle
  ASHRAE 189.1-2009 ExtRoof IEAD ClimateZone 6, !- Name
  ,                                       !- Surface Rendering Name
  {5eeca1a9-b5f2-4985-9de2-e2f7ce2b2f3c}, !- Layer 1
  {f96d9a3f-112a-4463-8c86-0b9d32736636}, !- Layer 2
  {fd032b72-cf10-4bf8-be99-44b2577866ec}; !- Layer 3

OS:StandardsInformation:Construction,
  {4c998da5-da66-4fc5-b0a8-9d7f0f85bb97}, !- Handle
  {622eab72-24a2-40e7-900c-9d9a8b648500}, !- Construction Name
  ExteriorRoof,                           !- Intended Surface Type
  IEAD;                                   !- Standards Construction Type

OS:Material,
  {f96d9a3f-112a-4463-8c86-0b9d32736636}, !- Handle
  Roof Insulation [24],                   !- Name
  MediumRough,                            !- Roughness
  0.260100000000001,                      !- Thickness {m}
  0.049,                                  !- Conductivity {W/m-K}
  265,                                    !- Density {kg/m3}
  836.800000000001,                       !- Specific Heat {J/kg-K}
  0.9,                                    !- Thermal Absorptance
  0.7,                                    !- Solar Absorptance
  0.7;                                    !- Visible Absorptance

OS:Construction,
  {a30df7c9-f444-49de-9e80-90a8ac11c0c2}, !- Handle
  ASHRAE 189.1-2009 ExtRoof IEAD ClimateZone 7-8, !- Name
  ,                                       !- Surface Rendering Name
  {5eeca1a9-b5f2-4985-9de2-e2f7ce2b2f3c}, !- Layer 1
  {1fc664fc-9de2-4dec-b2ff-6ac5ed1cb79d}, !- Layer 2
  {fd032b72-cf10-4bf8-be99-44b2577866ec}; !- Layer 3

OS:StandardsInformation:Construction,
  {b3849240-d92a-407e-b228-37d2271dbca0}, !- Handle
  {a30df7c9-f444-49de-9e80-90a8ac11c0c2}, !- Construction Name
  ExteriorRoof,                           !- Intended Surface Type
  IEAD;                                   !- Standards Construction Type

OS:Material,
  {1fc664fc-9de2-4dec-b2ff-6ac5ed1cb79d}, !- Handle
  Roof Insulation [26],                   !- Name
  MediumRough,                            !- Roughness
  0.2941,                                 !- Thickness {m}
  0.049,                                  !- Conductivity {W/m-K}
  265,                                    !- Density {kg/m3}
  836.800000000001,                       !- Specific Heat {J/kg-K}
  0.9,                                    !- Thermal Absorptance
  0.7,                                    !- Solar Absorptance
  0.7;                                    !- Visible Absorptance

OS:Construction,
  {55812893-1360-4c99-9816-20a3b087b91c}, !- Handle
  ASHRAE 189.1-2009 ExtRoof Metal ClimateZone 1, !- Name
  ,                                       !- Surface Rendering Name
  {b6db4204-92f0-479c-831c-ce751d59d2fe}, !- Layer 1
  {eed67269-a3e9-4beb-94d5-06dd662e823c}; !- Layer 2

OS:StandardsInformation:Construction,
  {32c6e5fd-a5ab-4fda-877f-3d292eb3a5c6}, !- Handle
  {55812893-1360-4c99-9816-20a3b087b91c}, !- Construction Name
  ExteriorRoof,                           !- Intended Surface Type
  Metal;                                  !- Standards Construction Type

OS:Material,
  {b6db4204-92f0-479c-831c-ce751d59d2fe}, !- Handle
  Metal Roofing,                          !- Name
  MediumSmooth,                           !- Roughness
  0.0015,                                 !- Thickness {m}
  45.006,                                 !- Conductivity {W/m-K}
  7680,                                   !- Density {kg/m3}
  418.4,                                  !- Specific Heat {J/kg-K}
  0.9,                                    !- Thermal Absorptance
  0.3,                                    !- Solar Absorptance
  0.3;                                    !- Visible Absorptance

OS:Material,
  {eed67269-a3e9-4beb-94d5-06dd662e823c}, !- Handle
  Roof Insulation [19],                   !- Name
  MediumRough,                            !- Roughness
  0.1868,                                 !- Thickness {m}
  0.049,                                  !- Conductivity {W/m-K}
  265,                                    !- Density {kg/m3}
  836.800000000001,                       !- Specific Heat {J/kg-K}
  0.9,                                    !- Thermal Absorptance
  0.7,                                    !- Solar Absorptance
  0.7;                                    !- Visible Absorptance

OS:Construction,
  {3f67c6e4-044f-40b9-b6c2-2abcf5378440}, !- Handle
  ASHRAE 189.1-2009 ExtRoof Metal ClimateZone 2-5, !- Name
  ,                                       !- Surface Rendering Name
  {b6db4204-92f0-479c-831c-ce751d59d2fe}, !- Layer 1
  {510133da-7644-4902-892f-673c2524d918}; !- Layer 2

OS:StandardsInformation:Construction,
  {bda281b8-95e5-4582-bdc3-b6a9d2fb3e76}, !- Handle
  {3f67c6e4-044f-40b9-b6c2-2abcf5378440}, !- Construction Name
  ExteriorRoof,                           !- Intended Surface Type
  Metal;                                  !- Standards Construction Type

OS:Material,
  {510133da-7644-4902-892f-673c2524d918}, !- Handle
  Roof Insulation [22],                   !- Name
  MediumRough,                            !- Roughness
  0.2358,                                 !- Thickness {m}
  0.049,                                  !- Conductivity {W/m-K}
  265,                                    !- Density {kg/m3}
  836.800000000001,                       !- Specific Heat {J/kg-K}
  0.9,                                    !- Thermal Absorptance
  0.7,                                    !- Solar Absorptance
  0.7;                                    !- Visible Absorptance

OS:Construction,
  {1582aca8-c1c2-43ee-9d07-d36c4d6d38ab}, !- Handle
  ASHRAE 189.1-2009 ExtRoof Metal ClimateZone 6, !- Name
  ,                                       !- Surface Rendering Name
  {b6db4204-92f0-479c-831c-ce751d59d2fe}, !- Layer 1
  {fdd30363-e9c2-4be5-9f57-0d7dc2396ac3}; !- Layer 2

OS:StandardsInformation:Construction,
  {707d3d12-d1aa-423f-9531-43954496614b}, !- Handle
  {1582aca8-c1c2-43ee-9d07-d36c4d6d38ab}, !- Construction Name
  ExteriorRoof,                           !- Intended Surface Type
  Metal;                                  !- Standards Construction Type

OS:Material,
  {fdd30363-e9c2-4be5-9f57-0d7dc2396ac3}, !- Handle
  Roof Insulation [25],                   !- Name
  MediumRough,                            !- Roughness
  0.263,                                  !- Thickness {m}
  0.049,                                  !- Conductivity {W/m-K}
  265,                                    !- Density {kg/m3}
  836.800000000001,                       !- Specific Heat {J/kg-K}
  0.9,                                    !- Thermal Absorptance
  0.7,                                    !- Solar Absorptance
  0.7;                                    !- Visible Absorptance

OS:Construction,
  {1f9cdf96-c429-4c13-8381-c9a4d4e2396e}, !- Handle
  ASHRAE 189.1-2009 ExtRoof Metal ClimateZone 7-8, !- Name
  ,                                       !- Surface Rendering Name
  {b6db4204-92f0-479c-831c-ce751d59d2fe}, !- Layer 1
  {6346df30-60da-4421-b172-2d33ec8b692b}; !- Layer 2

OS:StandardsInformation:Construction,
  {d3ddf61f-cc99-4aee-acfd-2bbc9dc5678c}, !- Handle
  {1f9cdf96-c429-4c13-8381-c9a4d4e2396e}, !- Construction Name
  ExteriorRoof,                           !- Intended Surface Type
  Metal;                                  !- Standards Construction Type

OS:Material,
  {6346df30-60da-4421-b172-2d33ec8b692b}, !- Handle
  Roof Insulation [27],                   !- Name
  MediumRough,                            !- Roughness
  0.297000000000001,                      !- Thickness {m}
  0.049,                                  !- Conductivity {W/m-K}
  265,                                    !- Density {kg/m3}
  836.800000000001,                       !- Specific Heat {J/kg-K}
  0.9,                                    !- Thermal Absorptance
  0.7,                                    !- Solar Absorptance
  0.7;                                    !- Visible Absorptance

OS:Construction,
  {4b3db5fd-e38c-4b3b-9450-9139ed5fb0dc}, !- Handle
  ASHRAE 189.1-2009 ExtWall Mass ClimateZone 1, !- Name
  ,                                       !- Surface Rendering Name
  {0b3dc557-6a2d-43a1-99b3-a9095567b171}, !- Layer 1
  {b743b556-4535-4fcf-a71f-a7fb598fefb1}, !- Layer 2
  {e56e3280-7729-4aff-981b-7b88d486c8f0}, !- Layer 3
  {478cc09f-04f5-4f59-97da-d065932b2166}; !- Layer 4

OS:StandardsInformation:Construction,
  {58126ba6-9bf8-4d4d-a629-92136925d438}, !- Handle
  {4b3db5fd-e38c-4b3b-9450-9139ed5fb0dc}, !- Construction Name
  ExteriorWall,                           !- Intended Surface Type
  Mass;                                   !- Standards Construction Type

OS:Material,
  {0b3dc557-6a2d-43a1-99b3-a9095567b171}, !- Handle
  1IN Stucco,                             !- Name
  Smooth,                                 !- Roughness
  0.0253,                                 !- Thickness {m}
  0.691799999999999,                      !- Conductivity {W/m-K}
  1858,                                   !- Density {kg/m3}
  836.999999999999,                       !- Specific Heat {J/kg-K}
  0.9,                                    !- Thermal Absorptance
  0.92,                                   !- Solar Absorptance
  0.92;                                   !- Visible Absorptance

OS:Material,
  {b743b556-4535-4fcf-a71f-a7fb598fefb1}, !- Handle
  8IN Concrete HW,                        !- Name
  MediumRough,                            !- Roughness
  0.2033,                                 !- Thickness {m}
  1.72959999999999,                       !- Conductivity {W/m-K}
  2242.99999999999,                       !- Density {kg/m3}
  836.999999999999,                       !- Specific Heat {J/kg-K}
  0.9,                                    !- Thermal Absorptance
  0.65,                                   !- Solar Absorptance
  0.65;                                   !- Visible Absorptance

OS:Material,
  {e56e3280-7729-4aff-981b-7b88d486c8f0}, !- Handle
  Wall Insulation [31],                   !- Name
  MediumRough,                            !- Roughness
  0.0337000000000001,                     !- Thickness {m}
  0.0432,                                 !- Conductivity {W/m-K}
  91,                                     !- Density {kg/m3}
  836.999999999999,                       !- Specific Heat {J/kg-K}
  0.9,                                    !- Thermal Absorptance
  0.5,                                    !- Solar Absorptance
  0.5;                                    !- Visible Absorptance

OS:Construction,
  {6a2a0f90-3130-4b8c-913c-3dde78ab50e7}, !- Handle
  ASHRAE 189.1-2009 ExtWall Mass ClimateZone 2, !- Name
  ,                                       !- Surface Rendering Name
  {0b3dc557-6a2d-43a1-99b3-a9095567b171}, !- Layer 1
  {b743b556-4535-4fcf-a71f-a7fb598fefb1}, !- Layer 2
  {113c3c53-e64b-4218-938f-2168c1d098a2}, !- Layer 3
  {478cc09f-04f5-4f59-97da-d065932b2166}; !- Layer 4

OS:StandardsInformation:Construction,
  {1df5a01e-e0ba-4cb0-b189-c96540bb96ae}, !- Handle
  {6a2a0f90-3130-4b8c-913c-3dde78ab50e7}, !- Construction Name
  ExteriorWall,                           !- Intended Surface Type
  Mass;                                   !- Standards Construction Type

OS:Material,
  {113c3c53-e64b-4218-938f-2168c1d098a2}, !- Handle
  Wall Insulation [35],                   !- Name
  MediumRough,                            !- Roughness
  0.0452,                                 !- Thickness {m}
  0.0432,                                 !- Conductivity {W/m-K}
  91,                                     !- Density {kg/m3}
  836.999999999999,                       !- Specific Heat {J/kg-K}
  0.9,                                    !- Thermal Absorptance
  0.5,                                    !- Solar Absorptance
  0.5;                                    !- Visible Absorptance

OS:Construction,
  {e9566129-29e1-4a0c-8be5-5d0b63dd81c3}, !- Handle
  ASHRAE 189.1-2009 ExtWall Mass ClimateZone 3, !- Name
  ,                                       !- Surface Rendering Name
  {0b3dc557-6a2d-43a1-99b3-a9095567b171}, !- Layer 1
  {b743b556-4535-4fcf-a71f-a7fb598fefb1}, !- Layer 2
  {1d07d660-b424-4ded-84ee-1a94e00a64f2}, !- Layer 3
  {478cc09f-04f5-4f59-97da-d065932b2166}; !- Layer 4

OS:StandardsInformation:Construction,
  {3681dc29-a352-4833-910b-4a2a6303c5c1}, !- Handle
  {e9566129-29e1-4a0c-8be5-5d0b63dd81c3}, !- Construction Name
  ExteriorWall,                           !- Intended Surface Type
  Mass;                                   !- Standards Construction Type

OS:Material,
  {1d07d660-b424-4ded-84ee-1a94e00a64f2}, !- Handle
  Wall Insulation [36],                   !- Name
  MediumRough,                            !- Roughness
  0.0565999999999999,                     !- Thickness {m}
  0.0432,                                 !- Conductivity {W/m-K}
  91,                                     !- Density {kg/m3}
  836.999999999999,                       !- Specific Heat {J/kg-K}
  0.9,                                    !- Thermal Absorptance
  0.5,                                    !- Solar Absorptance
  0.5;                                    !- Visible Absorptance

OS:Construction,
  {49421afa-00f2-4031-b910-cc5152c7bbf7}, !- Handle
  ASHRAE 189.1-2009 ExtWall Mass ClimateZone 4, !- Name
  ,                                       !- Surface Rendering Name
  {0b3dc557-6a2d-43a1-99b3-a9095567b171}, !- Layer 1
  {b743b556-4535-4fcf-a71f-a7fb598fefb1}, !- Layer 2
  {1a8754ed-701a-45ac-bde4-f371aa724f4b}, !- Layer 3
  {478cc09f-04f5-4f59-97da-d065932b2166}; !- Layer 4

OS:StandardsInformation:Construction,
  {60bc1a45-efd3-4efd-b4bc-4dafb87ecac9}, !- Handle
  {49421afa-00f2-4031-b910-cc5152c7bbf7}, !- Construction Name
  ExteriorWall,                           !- Intended Surface Type
  Mass;                                   !- Standards Construction Type

OS:Material,
  {1a8754ed-701a-45ac-bde4-f371aa724f4b}, !- Handle
  Wall Insulation [37],                   !- Name
  MediumRough,                            !- Roughness
  0.0680999999999999,                     !- Thickness {m}
  0.0432,                                 !- Conductivity {W/m-K}
  91,                                     !- Density {kg/m3}
  836.999999999999,                       !- Specific Heat {J/kg-K}
  0.9,                                    !- Thermal Absorptance
  0.5,                                    !- Solar Absorptance
  0.5;                                    !- Visible Absorptance

OS:Construction,
  {f8ed939c-190d-473d-8658-021cd82da057}, !- Handle
  ASHRAE 189.1-2009 ExtWall Mass ClimateZone 5, !- Name
  ,                                       !- Surface Rendering Name
  {0b3dc557-6a2d-43a1-99b3-a9095567b171}, !- Layer 1
  {b743b556-4535-4fcf-a71f-a7fb598fefb1}, !- Layer 2
  {bd60e320-bb81-4e90-8bd0-d351b57b26c7}, !- Layer 3
  {478cc09f-04f5-4f59-97da-d065932b2166}; !- Layer 4

OS:StandardsInformation:Construction,
  {20d2a3b8-dfc5-4b72-808e-0295d6e8164b}, !- Handle
  {f8ed939c-190d-473d-8658-021cd82da057}, !- Construction Name
  ExteriorWall,                           !- Intended Surface Type
  Mass;                                   !- Standards Construction Type

OS:Material,
  {bd60e320-bb81-4e90-8bd0-d351b57b26c7}, !- Handle
  Wall Insulation [40],                   !- Name
  MediumRough,                            !- Roughness
  0.0793999999999999,                     !- Thickness {m}
  0.0432,                                 !- Conductivity {W/m-K}
  91,                                     !- Density {kg/m3}
  836.999999999999,                       !- Specific Heat {J/kg-K}
  0.9,                                    !- Thermal Absorptance
  0.5,                                    !- Solar Absorptance
  0.5;                                    !- Visible Absorptance

OS:Construction,
  {b69fa276-8364-46e3-8f86-c6334f9a0de8}, !- Handle
  ASHRAE 189.1-2009 ExtWall Mass ClimateZone 6, !- Name
  ,                                       !- Surface Rendering Name
  {0b3dc557-6a2d-43a1-99b3-a9095567b171}, !- Layer 1
  {b743b556-4535-4fcf-a71f-a7fb598fefb1}, !- Layer 2
  {2d928b8f-d03a-4109-aba6-06855e67b61a}, !- Layer 3
  {478cc09f-04f5-4f59-97da-d065932b2166}; !- Layer 4

OS:StandardsInformation:Construction,
  {da6b4c11-a52a-40f6-8a39-280e77b750c1}, !- Handle
  {b69fa276-8364-46e3-8f86-c6334f9a0de8}, !- Construction Name
  ExteriorWall,                           !- Intended Surface Type
  Mass;                                   !- Standards Construction Type

OS:Material,
  {2d928b8f-d03a-4109-aba6-06855e67b61a}, !- Handle
  Wall Insulation [42],                   !- Name
  MediumRough,                            !- Roughness
  0.0913999999999999,                     !- Thickness {m}
  0.0432,                                 !- Conductivity {W/m-K}
  91,                                     !- Density {kg/m3}
  836.999999999999,                       !- Specific Heat {J/kg-K}
  0.9,                                    !- Thermal Absorptance
  0.5,                                    !- Solar Absorptance
  0.5;                                    !- Visible Absorptance

OS:Construction,
  {7171d60c-deaa-4664-8d7b-1d48d6e49123}, !- Handle
  ASHRAE 189.1-2009 ExtWall Mass ClimateZone 7-8, !- Name
  ,                                       !- Surface Rendering Name
  {0b3dc557-6a2d-43a1-99b3-a9095567b171}, !- Layer 1
  {b743b556-4535-4fcf-a71f-a7fb598fefb1}, !- Layer 2
  {a6318eca-16d8-4601-a912-315d07f6506b}, !- Layer 3
  {478cc09f-04f5-4f59-97da-d065932b2166}; !- Layer 4

OS:StandardsInformation:Construction,
  {dd712514-d922-4508-8bd5-bc8fbf85e463}, !- Handle
  {7171d60c-deaa-4664-8d7b-1d48d6e49123}, !- Construction Name
  ExteriorWall,                           !- Intended Surface Type
  Mass;                                   !- Standards Construction Type

OS:Material,
  {a6318eca-16d8-4601-a912-315d07f6506b}, !- Handle
  Wall Insulation [44],                   !- Name
  MediumRough,                            !- Roughness
  0.1104,                                 !- Thickness {m}
  0.0432,                                 !- Conductivity {W/m-K}
  91,                                     !- Density {kg/m3}
  836.999999999999,                       !- Specific Heat {J/kg-K}
  0.9,                                    !- Thermal Absorptance
  0.5,                                    !- Solar Absorptance
  0.5;                                    !- Visible Absorptance

OS:Construction,
  {24463e58-32b7-46c7-a376-d645c839f93d}, !- Handle
  ASHRAE 189.1-2009 ExtWall Mass ClimateZone alt-res 1, !- Name
  ,                                       !- Surface Rendering Name
  {0b3dc557-6a2d-43a1-99b3-a9095567b171}, !- Layer 1
  {b743b556-4535-4fcf-a71f-a7fb598fefb1}, !- Layer 2
  {113c3c53-e64b-4218-938f-2168c1d098a2}, !- Layer 3
  {478cc09f-04f5-4f59-97da-d065932b2166}; !- Layer 4

OS:StandardsInformation:Construction,
  {ef46e2d6-b2c8-4878-914c-2881dff2697e}, !- Handle
  {24463e58-32b7-46c7-a376-d645c839f93d}, !- Construction Name
  ExteriorWall,                           !- Intended Surface Type
  Mass;                                   !- Standards Construction Type

OS:Construction,
  {603d90a8-445a-4b4d-a419-adc09554d6da}, !- Handle
  ASHRAE 189.1-2009 ExtWall Mass ClimateZone alt-res 2, !- Name
  ,                                       !- Surface Rendering Name
  {0b3dc557-6a2d-43a1-99b3-a9095567b171}, !- Layer 1
  {b743b556-4535-4fcf-a71f-a7fb598fefb1}, !- Layer 2
  {1d07d660-b424-4ded-84ee-1a94e00a64f2}, !- Layer 3
  {478cc09f-04f5-4f59-97da-d065932b2166}; !- Layer 4

OS:StandardsInformation:Construction,
  {e98039d9-ca4e-419b-84b0-8259d122cb5d}, !- Handle
  {603d90a8-445a-4b4d-a419-adc09554d6da}, !- Construction Name
  ExteriorWall,                           !- Intended Surface Type
  Mass;                                   !- Standards Construction Type

OS:Construction,
  {6d1f29b1-513b-4389-b1b1-733c847c883d}, !- Handle
  ASHRAE 189.1-2009 ExtWall Mass ClimateZone alt-res 3, !- Name
  ,                                       !- Surface Rendering Name
  {0b3dc557-6a2d-43a1-99b3-a9095567b171}, !- Layer 1
  {b743b556-4535-4fcf-a71f-a7fb598fefb1}, !- Layer 2
  {1a8754ed-701a-45ac-bde4-f371aa724f4b}, !- Layer 3
  {478cc09f-04f5-4f59-97da-d065932b2166}; !- Layer 4

OS:StandardsInformation:Construction,
  {d26aadfc-78cf-4935-8e73-fd43da27fa78}, !- Handle
  {6d1f29b1-513b-4389-b1b1-733c847c883d}, !- Construction Name
  ExteriorWall,                           !- Intended Surface Type
  Mass;                                   !- Standards Construction Type

OS:Construction,
  {963e5761-c10d-479e-a25d-50526f08967a}, !- Handle
  ASHRAE 189.1-2009 ExtWall Mass ClimateZone alt-res 4, !- Name
  ,                                       !- Surface Rendering Name
  {0b3dc557-6a2d-43a1-99b3-a9095567b171}, !- Layer 1
  {b743b556-4535-4fcf-a71f-a7fb598fefb1}, !- Layer 2
  {bd60e320-bb81-4e90-8bd0-d351b57b26c7}, !- Layer 3
  {478cc09f-04f5-4f59-97da-d065932b2166}; !- Layer 4

OS:StandardsInformation:Construction,
  {db9dc0d1-23a7-47a3-9758-08dae0855934}, !- Handle
  {963e5761-c10d-479e-a25d-50526f08967a}, !- Construction Name
  ExteriorWall,                           !- Intended Surface Type
  Mass;                                   !- Standards Construction Type

OS:Construction,
  {ef41e4ff-9d0b-42b6-97a9-232a3d20991b}, !- Handle
  ASHRAE 189.1-2009 ExtWall Mass ClimateZone alt-res 5, !- Name
  ,                                       !- Surface Rendering Name
  {0b3dc557-6a2d-43a1-99b3-a9095567b171}, !- Layer 1
  {b743b556-4535-4fcf-a71f-a7fb598fefb1}, !- Layer 2
  {2d928b8f-d03a-4109-aba6-06855e67b61a}, !- Layer 3
  {478cc09f-04f5-4f59-97da-d065932b2166}; !- Layer 4

OS:StandardsInformation:Construction,
  {19a05570-e170-4849-9722-2163b45d5a50}, !- Handle
  {ef41e4ff-9d0b-42b6-97a9-232a3d20991b}, !- Construction Name
  ExteriorWall,                           !- Intended Surface Type
  Mass;                                   !- Standards Construction Type

OS:Construction,
  {d8b00854-85bf-4bf9-9fa9-f443e218d762}, !- Handle
  ASHRAE 189.1-2009 ExtWall Mass ClimateZone alt-res 6, !- Name
  ,                                       !- Surface Rendering Name
  {0b3dc557-6a2d-43a1-99b3-a9095567b171}, !- Layer 1
  {b743b556-4535-4fcf-a71f-a7fb598fefb1}, !- Layer 2
  {a6318eca-16d8-4601-a912-315d07f6506b}, !- Layer 3
  {478cc09f-04f5-4f59-97da-d065932b2166}; !- Layer 4

OS:StandardsInformation:Construction,
  {750ae749-516a-4ca2-ad45-f17cf8edb004}, !- Handle
  {d8b00854-85bf-4bf9-9fa9-f443e218d762}, !- Construction Name
  ExteriorWall,                           !- Intended Surface Type
  Mass;                                   !- Standards Construction Type

OS:Construction,
  {f4e08976-4cc5-4bb9-87d7-803eb33a62a6}, !- Handle
  ASHRAE 189.1-2009 ExtWall Mass ClimateZone alt-res 7, !- Name
  ,                                       !- Surface Rendering Name
  {0b3dc557-6a2d-43a1-99b3-a9095567b171}, !- Layer 1
  {b743b556-4535-4fcf-a71f-a7fb598fefb1}, !- Layer 2
  {a6318eca-16d8-4601-a912-315d07f6506b}, !- Layer 3
  {478cc09f-04f5-4f59-97da-d065932b2166}; !- Layer 4

OS:StandardsInformation:Construction,
  {7f63078f-eb62-47f0-8b4d-c05b25e4b3d2}, !- Handle
  {f4e08976-4cc5-4bb9-87d7-803eb33a62a6}, !- Construction Name
  ExteriorWall,                           !- Intended Surface Type
  Mass;                                   !- Standards Construction Type

OS:Construction,
  {c5fe66e7-02ae-45ce-9dd0-d9b4462d7e7b}, !- Handle
  ASHRAE 189.1-2009 ExtWall Mass ClimateZone alt-res 8, !- Name