
OS:Version,
  {6f7601cb-7646-48dc-9fc7-5a2384dd1cd4}, !- Handle
  1.4.0;                                  !- Version Identifier

OS:Construction,
  {20f81500-da4c-43f4-8798-b089c0b97439}, !- Handle
  ASHRAE 189.1-2009 AtticFloor ClimateZone 1-8, !- Name
  ,                                       !- Surface Rendering Name
  {dc5ef32d-65cd-495e-b8f9-90325f26458a}, !- Layer 1
  {f1c30808-6ed9-4759-b4fc-20cca4f1096d}, !- Layer 2
  {dc5ef32d-65cd-495e-b8f9-90325f26458a}; !- Layer 3

OS:StandardsInformation:Construction,
  {c04181ff-f3a6-4ef0-be26-0fd72d43e687}, !- Handle
  {20f81500-da4c-43f4-8798-b089c0b97439}, !- Construction Name
  AtticFloor,                             !- Intended Surface Type
  WoodFramed;                             !- Standards Construction Type

OS:Material,
  {dc5ef32d-65cd-495e-b8f9-90325f26458a}, !- Handle
  1/2IN Gypsum,                           !- Name
  Smooth,                                 !- Roughness
  0.0127,                                 !- Thickness {m}
  0.16,                                   !- Conductivity {W/m-K}
  784.9,                                  !- Density {kg/m3}
  830.000000000001,                       !- Specific Heat {J/kg-K}
  0.9,                                    !- Thermal Absorptance
  0.4,                                    !- Solar Absorptance
  0.4;                                    !- Visible Absorptance

OS:Material,
  {f1c30808-6ed9-4759-b4fc-20cca4f1096d}, !- Handle
  AtticFloor Insulation,                  !- Name
  MediumRough,                            !- Roughness
  0.2379,                                 !- Thickness {m}
  0.049,                                  !- Conductivity {W/m-K}
  265,                                    !- Density {kg/m3}
  836.800000000001,                       !- Specific Heat {J/kg-K}
  0.9,                                    !- Thermal Absorptance
  0.7,                                    !- Solar Absorptance
  0.7;                                    !- Visible Absorptance

OS:Construction,
  {3a4ffd30-87e2-4c75-a709-9dcaca39bd78}, !- Handle
  ASHRAE 189.1-2009 ExtRoof IEAD ClimateZone 1, !- Name
  ,                                       !- Surface Rendering Name
  {f2437110-2029-4289-9d7b-2b4eafb980fd}, !- Layer 1
  {88c8c704-3ada-4e14-a584-f8661b53bcd9}, !- Layer 2
  {69fcc730-8517-430f-b535-1286900501b6}; !- Layer 3

OS:StandardsInformation:Construction,
  {932e1783-d674-4332-9901-e491a39593b8}, !- Handle
  {3a4ffd30-87e2-4c75-a709-9dcaca39bd78}, !- Construction Name
  ExteriorRoof,                           !- Intended Surface Type
  IEAD;                                   !- Standards Construction Type

OS:Material,
  {f2437110-2029-4289-9d7b-2b4eafb980fd}, !- Handle
  Roof Membrane,                          !- Name
  VeryRough,                              !- Roughness
  0.0095,                                 !- Thickness {m}
  0.16,                                   !- Conductivity {W/m-K}
  1121.29,                                !- Density {kg/m3}
  1460,                                   !- Specific Heat {J/kg-K}
  0.9,                                    !- Thermal Absorptance
  0.7,                                    !- Solar Absorptance
  0.7;                                    !- Visible Absorptance

OS:Material,
  {88c8c704-3ada-4e14-a584-f8661b53bcd9}, !- Handle
  Roof Insulation [18],                   !- Name
  MediumRough,                            !- Roughness
  0.1693,                                 !- Thickness {m}
  0.049,                                  !- Conductivity {W/m-K}
  265,                                    !- Density {kg/m3}
  836.800000000001,                       !- Specific Heat {J/kg-K}
  0.9,                                    !- Thermal Absorptance
  0.7,                                    !- Solar Absorptance
  0.7;                                    !- Visible Absorptance

OS:Material,
  {69fcc730-8517-430f-b535-1286900501b6}, !- Handle
  Metal Decking,                          !- Name
  MediumSmooth,                           !- Roughness
  0.0015,                                 !- Thickness {m}
  45.006,                                 !- Conductivity {W/m-K}
  7680,                                   !- Density {kg/m3}
  418.4,                                  !- Specific Heat {J/kg-K}
  0.9,                                    !- Thermal Absorptance
  0.6,                                    !- Solar Absorptance
  0.6;                                    !- Visible Absorptance

OS:Construction,
  {a9d3221e-dba6-46be-a960-635c4246e1ac}, !- Handle
  ASHRAE 189.1-2009 ExtRoof IEAD ClimateZone 2-5, !- Name
  ,                                       !- Surface Rendering Name
  {f2437110-2029-4289-9d7b-2b4eafb980fd}, !- Layer 1
  {b9ee5112-cf2c-4192-8dfc-87eb21423cd5}, !- Layer 2
  {69fcc730-8517-430f-b535-1286900501b6}; !- Layer 3

OS:StandardsInformation:Construction,
  {632872e5-2474-4a77-bbe6-1d9638fa20dd}, !- Handle
  {a9d3221e-dba6-46be-a960-635c4246e1ac}, !- Construction Name
  ExteriorRoof,                           !- Intended Surface Type
  IEAD;                                   !- Standards Construction Type

OS:Material,
  {b9ee5112-cf2c-4192-8dfc-87eb21423cd5}, !- Handle
  Roof Insulation [21],                   !- Name
  MediumRough,                            !- Roughness
  0.2105,                                 !- Thickness {m}
  0.049,                                  !- Conductivity {W/m-K}
  265,                                    !- Density {kg/m3}
  836.800000000001,                       !- Specific Heat {J/kg-K}
  0.9,                                    !- Thermal Absorptance
  0.7,                                    !- Solar Absorptance
  0.7;                                    !- Visible Absorptance

OS:Construction,
  {01d9c549-0c49-4373-b39f-f4bbb203b809}, !- Handle
  ASHRAE 189.1-2009 ExtRoof IEAD ClimateZone 6, !- Name
  ,                                       !- Surface Rendering Name
  {f2437110-2029-4289-9d7b-2b4eafb980fd}, !- Layer 1
  {f58bea9f-a64d-42cd-ae99-4d36684dc668}, !- Layer 2
  {69fcc730-8517-430f-b535-1286900501b6}; !- Layer 3

OS:StandardsInformation:Construction,
  {bf4013b3-a71f-4e74-a9a0-5cfb42fea2d1}, !- Handle
  {01d9c549-0c49-4373-b39f-f4bbb203b809}, !- Construction Name
  ExteriorRoof,                           !- Intended Surface Type
  IEAD;                                   !- Standards Construction Type

OS:Material,
  {f58bea9f-a64d-42cd-ae99-4d36684dc668}, !- Handle
  Roof Insulation [24],                   !- Name
  MediumRough,                            !- Roughness
  0.260100000000001,                      !- Thickness {m}
  0.049,                                  !- Conductivity {W/m-K}
  265,                                    !- Density {kg/m3}
  836.800000000001,                       !- Specific Heat {J/kg-K}
  0.9,                                    !- Thermal Absorptance
  0.7,                                    !- Solar Absorptance
  0.7;                                    !- Visible Absorptance

OS:Construction,
  {4acf2fe3-9e63-46a7-a804-c88e5aa08194}, !- Handle
  ASHRAE 189.1-2009 ExtRoof IEAD ClimateZone 7-8, !- Name
  ,                                       !- Surface Rendering Name
  {f2437110-2029-4289-9d7b-2b4eafb980fd}, !- Layer 1
  {99e67b45-9dca-4464-82d6-9137ef4b0578}, !- Layer 2
  {69fcc730-8517-430f-b535-1286900501b6}; !- Layer 3

OS:StandardsInformation:Construction,
  {d50c0731-6dec-4db4-8ddb-a59b05fc4c4d}, !- Handle
  {4acf2fe3-9e63-46a7-a804-c88e5aa08194}, !- Construction Name
  ExteriorRoof,                           !- Intended Surface Type
  IEAD;                                   !- Standards Construction Type

OS:Material,
  {99e67b45-9dca-4464-82d6-9137ef4b0578}, !- Handle
  Roof Insulation [26],                   !- Name
  MediumRough,                            !- Roughness
  0.2941,                                 !- Thickness {m}
  0.049,                                  !- Conductivity {W/m-K}
  265,                                    !- Density {kg/m3}
  836.800000000001,                       !- Specific Heat {J/kg-K}
  0.9,                                    !- Thermal Absorptance
  0.7,                                    !- Solar Absorptance
  0.7;                                    !- Visible Absorptance

OS:Construction,
  {49c0ae91-7fc1-4c9b-b171-9ef10996a22b}, !- Handle
  ASHRAE 189.1-2009 ExtRoof Metal ClimateZone 1, !- Name
  ,                                       !- Surface Rendering Name
  {e6ccf94e-845d-47cc-99d4-44d9df987859}, !- Layer 1
  {ffe694a6-965b-454b-9189-da089906286a}, !- Layer 2
  {69fcc730-8517-430f-b535-1286900501b6}; !- Layer 3

OS:StandardsInformation:Construction,
  {f1165e6d-bdeb-414f-8149-c07417120b0a}, !- Handle
  {49c0ae91-7fc1-4c9b-b171-9ef10996a22b}, !- Construction Name
  ExteriorRoof,                           !- Intended Surface Type
  Metal;                                  !- Standards Construction Type

OS:Material,
  {e6ccf94e-845d-47cc-99d4-44d9df987859}, !- Handle
  Metal Roofing,                          !- Name
  MediumSmooth,                           !- Roughness
  0.0015,                                 !- Thickness {m}
  45.006,                                 !- Conductivity {W/m-K}
  7680,                                   !- Density {kg/m3}
  418.4,                                  !- Specific Heat {J/kg-K}
  0.9,                                    !- Thermal Absorptance
  0.6,                                    !- Solar Absorptance
  0.6;                                    !- Visible Absorptance

OS:Material,
  {ffe694a6-965b-454b-9189-da089906286a}, !- Handle
  Roof Insulation [19],                   !- Name
  MediumRough,                            !- Roughness
  0.1868,                                 !- Thickness {m}
  0.049,                                  !- Conductivity {W/m-K}
  265,                                    !- Density {kg/m3}
  836.800000000001,                       !- Specific Heat {J/kg-K}
  0.9,                                    !- Thermal Absorptance
  0.7,                                    !- Solar Absorptance
  0.7;                                    !- Visible Absorptance

OS:Construction,
  {e49eedac-b40d-405c-8b5d-20b1c9790303}, !- Handle
  ASHRAE 189.1-2009 ExtRoof Metal ClimateZone 2-5, !- Name
  ,                                       !- Surface Rendering Name
  {e6ccf94e-845d-47cc-99d4-44d9df987859}, !- Layer 1
  {4255482b-f42b-4b8d-9712-c6919d47f886}, !- Layer 2
  {69fcc730-8517-430f-b535-1286900501b6}; !- Layer 3

OS:StandardsInformation:Construction,
  {87abe4e4-4f91-4b00-90ef-577f9341fd27}, !- Handle
  {e49eedac-b40d-405c-8b5d-20b1c9790303}, !- Construction Name
  ExteriorRoof,                           !- Intended Surface Type
  Metal;                                  !- Standards Construction Type

OS:Material,
  {4255482b-f42b-4b8d-9712-c6919d47f886}, !- Handle
  Roof Insulation [22],                   !- Name
  MediumRough,                            !- Roughness
  0.2358,                                 !- Thickness {m}
  0.049,                                  !- Conductivity {W/m-K}
  265,                                    !- Density {kg/m3}
  836.800000000001,                       !- Specific Heat {J/kg-K}
  0.9,                                    !- Thermal Absorptance
  0.7,                                    !- Solar Absorptance
  0.7;                                    !- Visible Absorptance

OS:Construction,
  {e7a354b9-c7ca-4cdb-9a58-1321d0b0e990}, !- Handle
  ASHRAE 189.1-2009 ExtRoof Metal ClimateZone 6, !- Name
  ,                                       !- Surface Rendering Name
  {e6ccf94e-845d-47cc-99d4-44d9df987859}, !- Layer 1
  {162e9c7b-62dd-4bbb-a6bb-dd11caa83039}, !- Layer 2
  {69fcc730-8517-430f-b535-1286900501b6}; !- Layer 3

OS:StandardsInformation:Construction,
  {4180f936-a18b-4b39-b7aa-f51effb5b558}, !- Handle
  {e7a354b9-c7ca-4cdb-9a58-1321d0b0e990}, !- Construction Name
  ExteriorRoof,                           !- Intended Surface Type
  Metal;                                  !- Standards Construction Type

OS:Material,
  {162e9c7b-62dd-4bbb-a6bb-dd11caa83039}, !- Handle
  Roof Insulation [25],                   !- Name
  MediumRough,                            !- Roughness
  0.263,                                  !- Thickness {m}
  0.049,                                  !- Conductivity {W/m-K}
  265,                                    !- Density {kg/m3}
  836.800000000001,                       !- Specific Heat {J/kg-K}
  0.9,                                    !- Thermal Absorptance
  0.7,                                    !- Solar Absorptance
  0.7;                                    !- Visible Absorptance

OS:Construction,
  {6f265369-7bd3-443c-8c69-5f697a0b9446}, !- Handle
  ASHRAE 189.1-2009 ExtRoof Metal ClimateZone 7-8, !- Name
  ,                                       !- Surface Rendering Name
  {e6ccf94e-845d-47cc-99d4-44d9df987859}, !- Layer 1
  {1eaa7cfe-974f-4839-bd07-a3293dbcff85}, !- Layer 2
  {69fcc730-8517-430f-b535-1286900501b6}; !- Layer 3

OS:StandardsInformation:Construction,
  {b47d0090-5afa-4687-997d-eb7c2fb82cd3}, !- Handle
  {6f265369-7bd3-443c-8c69-5f697a0b9446}, !- Construction Name
  ExteriorRoof,                           !- Intended Surface Type
  Metal;                                  !- Standards Construction Type

OS:Material,
  {1eaa7cfe-974f-4839-bd07-a3293dbcff85}, !- Handle
  Roof Insulation [27],                   !- Name
  MediumRough,                            !- Roughness
  0.297000000000001,                      !- Thickness {m}
  0.049,                                  !- Conductivity {W/m-K}
  265,                                    !- Density {kg/m3}
  836.800000000001,                       !- Specific Heat {J/kg-K}
  0.9,                                    !- Thermal Absorptance
  0.7,                                    !- Solar Absorptance
  0.7;                                    !- Visible Absorptance

OS:Construction,
  {7bee2221-3c72-4b6f-9f29-83a72f8e8d4f}, !- Handle
  ASHRAE 189.1-2009 ExtWall Mass ClimateZone 1, !- Name
  ,                                       !- Surface Rendering Name
  {d2b3d669-b9bf-40fc-aa22-1b48913f7126}, !- Layer 1
  {b9568eb3-b504-4419-a456-521779141edf}, !- Layer 2
  {cbd30aaf-87d6-453b-bcee-ed41a8ae48f0}, !- Layer 3
  {dc5ef32d-65cd-495e-b8f9-90325f26458a}; !- Layer 4

OS:StandardsInformation:Construction,
  {c37aefa5-b0ca-4781-9ce6-b6d6d044db03}, !- Handle
  {7bee2221-3c72-4b6f-9f29-83a72f8e8d4f}, !- Construction Name
  ExteriorWall,                           !- Intended Surface Type
  Mass;                                   !- Standards Construction Type

OS:Material,
  {d2b3d669-b9bf-40fc-aa22-1b48913f7126}, !- Handle
  1IN Stucco,                             !- Name
  Smooth,                                 !- Roughness
  0.0253,                                 !- Thickness {m}
  0.691799999999999,                      !- Conductivity {W/m-K}
  1858,                                   !- Density {kg/m3}
  836.999999999999,                       !- Specific Heat {J/kg-K}
  0.9,                                    !- Thermal Absorptance
  0.92,                                   !- Solar Absorptance
  0.92;                                   !- Visible Absorptance

OS:Material,
  {b9568eb3-b504-4419-a456-521779141edf}, !- Handle
  8IN Concrete HW,                        !- Name
  MediumRough,                            !- Roughness
  0.2033,                                 !- Thickness {m}
  1.72959999999999,                       !- Conductivity {W/m-K}
  2242.99999999999,                       !- Density {kg/m3}
  836.999999999999,                       !- Specific Heat {J/kg-K}
  0.9,                                    !- Thermal Absorptance
  0.65,                                   !- Solar Absorptance
  0.65;                                   !- Visible Absorptance

OS:Material,
  {cbd30aaf-87d6-453b-bcee-ed41a8ae48f0}, !- Handle
  Wall Insulation [31],                   !- Name
  MediumRough,                            !- Roughness
  0.0337000000000001,                     !- Thickness {m}
  0.0432,                                 !- Conductivity {W/m-K}
  91,                                     !- Density {kg/m3}
  836.999999999999,                       !- Specific Heat {J/kg-K}
  0.9,                                    !- Thermal Absorptance
  0.5,                                    !- Solar Absorptance
  0.5;                                    !- Visible Absorptance

OS:Construction,
  {c11de604-a5ce-443a-a253-6a7be18d3f3f}, !- Handle
  ASHRAE 189.1-2009 ExtWall Mass ClimateZone 2, !- Name
  ,                                       !- Surface Rendering Name
  {d2b3d669-b9bf-40fc-aa22-1b48913f7126}, !- Layer 1
  {b9568eb3-b504-4419-a456-521779141edf}, !- Layer 2
  {2c50dfbf-4719-46ab-9abf-76a14c564d9c}, !- Layer 3
  {dc5ef32d-65cd-495e-b8f9-90325f26458a}; !- Layer 4

OS:StandardsInformation:Construction,
  {218fecfc-cef1-422f-b8d9-1cee6c6a77f6}, !- Handle
  {c11de604-a5ce-443a-a253-6a7be18d3f3f}, !- Construction Name
  ExteriorWall,                           !- Intended Surface Type
  Mass;                                   !- Standards Construction Type

OS:Material,
  {2c50dfbf-4719-46ab-9abf-76a14c564d9c}, !- Handle
  Wall Insulation [35],                   !- Name
  MediumRough,                            !- Roughness
  0.0452,                                 !- Thickness {m}
  0.0432,                                 !- Conductivity {W/m-K}
  91,                                     !- Density {kg/m3}
  836.999999999999,                       !- Specific Heat {J/kg-K}
  0.9,                                    !- Thermal Absorptance
  0.5,                                    !- Solar Absorptance
  0.5;                                    !- Visible Absorptance

OS:Construction,
  {8eb197a0-e633-45b6-a61d-7c16dcebe9fe}, !- Handle
  ASHRAE 189.1-2009 ExtWall Mass ClimateZone 3, !- Name
  ,                                       !- Surface Rendering Name
  {d2b3d669-b9bf-40fc-aa22-1b48913f7126}, !- Layer 1
  {b9568eb3-b504-4419-a456-521779141edf}, !- Layer 2
  {ba6c0bf8-9fb5-484c-b59c-db4ea0f34b0c}, !- Layer 3
  {dc5ef32d-65cd-495e-b8f9-90325f26458a}; !- Layer 4

OS:StandardsInformation:Construction,
  {1f2e6545-005f-4180-8faa-1d293e0df099}, !- Handle
  {8eb197a0-e633-45b6-a61d-7c16dcebe9fe}, !- Construction Name
  ExteriorWall,                           !- Intended Surface Type
  Mass;                                   !- Standards Construction Type

OS:Material,
  {ba6c0bf8-9fb5-484c-b59c-db4ea0f34b0c}, !- Handle
  Wall Insulation [36],                   !- Name
  MediumRough,                            !- Roughness
  0.0565999999999999,                     !- Thickness {m}
  0.0432,                                 !- Conductivity {W/m-K}
  91,                                     !- Density {kg/m3}
  836.999999999999,                       !- Specific Heat {J/kg-K}
  0.9,                                    !- Thermal Absorptance
  0.5,                                    !- Solar Absorptance
  0.5;                                    !- Visible Absorptance

OS:Construction,
  {ec536223-fada-40b9-aeaa-2e6a5788e367}, !- Handle
  ASHRAE 189.1-2009 ExtWall Mass ClimateZone 4, !- Name
  ,                                       !- Surface Rendering Name
  {d2b3d669-b9bf-40fc-aa22-1b48913f7126}, !- Layer 1
  {b9568eb3-b504-4419-a456-521779141edf}, !- Layer 2
  {8c5811a9-ac21-4051-bdbb-f4152121da9e}, !- Layer 3
  {dc5ef32d-65cd-495e-b8f9-90325f26458a}; !- Layer 4

OS:StandardsInformation:Construction,
  {ecc4a78f-a160-4112-a3ca-3ca6daf7e8df}, !- Handle
  {ec536223-fada-40b9-aeaa-2e6a5788e367}, !- Construction Name
  ExteriorWall,                           !- Intended Surface Type
  Mass;                                   !- Standards Construction Type

OS:Material,
  {8c5811a9-ac21-4051-bdbb-f4152121da9e}, !- Handle
  Wall Insulation [37],                   !- Name
  MediumRough,                            !- Roughness
  0.0680999999999999,                     !- Thickness {m}
  0.0432,                                 !- Conductivity {W/m-K}
  91,                                     !- Density {kg/m3}
  836.999999999999,                       !- Specific Heat {J/kg-K}
  0.9,                                    !- Thermal Absorptance
  0.5,                                    !- Solar Absorptance
  0.5;                                    !- Visible Absorptance

OS:Construction,
  {aef51494-d0ad-40c7-9c7c-010e534a4c44}, !- Handle
  ASHRAE 189.1-2009 ExtWall Mass ClimateZone 5, !- Name
  ,                                       !- Surface Rendering Name
  {d2b3d669-b9bf-40fc-aa22-1b48913f7126}, !- Layer 1
  {b9568eb3-b504-4419-a456-521779141edf}, !- Layer 2
  {093920d3-ffa7-4df1-9412-78b0400055e0}, !- Layer 3
  {dc5ef32d-65cd-495e-b8f9-90325f26458a}; !- Layer 4

OS:StandardsInformation:Construction,
  {1a2dd590-d29b-4bd2-b85c-0547b47c4ad8}, !- Handle
  {aef51494-d0ad-40c7-9c7c-010e534a4c44}, !- Construction Name
  ExteriorWall,                           !- Intended Surface Type
  Mass;                                   !- Standards Construction Type

OS:Material,
  {093920d3-ffa7-4df1-9412-78b0400055e0}, !- Handle
  Wall Insulation [40],                   !- Name
  MediumRough,                            !- Roughness
  0.0793999999999999,                     !- Thickness {m}
  0.0432,                                 !- Conductivity {W/m-K}
  91,                                     !- Density {kg/m3}
  836.999999999999,                       !- Specific Heat {J/kg-K}
  0.9,                                    !- Thermal Absorptance
  0.5,                                    !- Solar Absorptance
  0.5;                                    !- Visible Absorptance

OS:Construction,
  {85cb7c5a-ef94-4bfd-adae-1a185b11ccdb}, !- Handle
  ASHRAE 189.1-2009 ExtWall Mass ClimateZone 6, !- Name
  ,                                       !- Surface Rendering Name
  {d2b3d669-b9bf-40fc-aa22-1b48913f7126}, !- Layer 1
  {b9568eb3-b504-4419-a456-521779141edf}, !- Layer 2
  {923a75b2-160b-4644-8719-a9052f9082e9}, !- Layer 3
  {dc5ef32d-65cd-495e-b8f9-90325f26458a}; !- Layer 4

OS:StandardsInformation:Construction,
  {770010cf-ac1f-41e8-a859-3b2cab3bb397}, !- Handle
  {85cb7c5a-ef94-4bfd-adae-1a185b11ccdb}, !- Construction Name
  ExteriorWall,                           !- Intended Surface Type
  Mass;                                   !- Standards Construction Type

OS:Material,
  {923a75b2-160b-4644-8719-a9052f9082e9}, !- Handle
  Wall Insulation [42],                   !- Name
  MediumRough,                            !- Roughness
  0.0913999999999999,                     !- Thickness {m}
  0.0432,                                 !- Conductivity {W/m-K}
  91,                                     !- Density {kg/m3}
  836.999999999999,                       !- Specific Heat {J/kg-K}
  0.9,                                    !- Thermal Absorptance
  0.5,                                    !- Solar Absorptance
  0.5;                                    !- Visible Absorptance

OS:Construction,
  {5fbc4ed3-7d11-4250-8a1d-18ba48c2340e}, !- Handle
  ASHRAE 189.1-2009 ExtWall Mass ClimateZone 7-8, !- Name
  ,                                       !- Surface Rendering Name
  {d2b3d669-b9bf-40fc-aa22-1b48913f7126}, !- Layer 1
  {b9568eb3-b504-4419-a456-521779141edf}, !- Layer 2
  {c0918270-f334-4628-a3a3-1273994a8729}, !- Layer 3
  {dc5ef32d-65cd-495e-b8f9-90325f26458a}; !- Layer 4

OS:StandardsInformation:Construction,
  {8a818048-4b62-4893-a58b-d54bb65c87c4}, !- Handle
  {5fbc4ed3-7d11-4250-8a1d-18ba48c2340e}, !- Construction Name
  ExteriorWall,                           !- Intended Surface Type
  Mass;                                   !- Standards Construction Type

OS:Material,
  {c0918270-f334-4628-a3a3-1273994a8729}, !- Handle
  Wall Insulation [44],                   !- Name
  MediumRough,                            !- Roughness
  0.1104,                                 !- Thickness {m}
  0.0432,                                 !- Conductivity {W/m-K}
  91,                                     !- Density {kg/m3}
  836.999999999999,                       !- Specific Heat {J/kg-K}
  0.9,                                    !- Thermal Absorptance
  0.5,                                    !- Solar Absorptance
  0.5;                                    !- Visible Absorptance

OS:Construction,
  {07ed5d87-d94f-48c4-ba64-0cfa2245fbc0}, !- Handle
  ASHRAE 189.1-2009 ExtWall Mass ClimateZone alt-res 1, !- Name
  ,                                       !- Surface Rendering Name
  {d2b3d669-b9bf-40fc-aa22-1b48913f7126}, !- Layer 1
  {b9568eb3-b504-4419-a456-521779141edf}, !- Layer 2
  {2c50dfbf-4719-46ab-9abf-76a14c564d9c}, !- Layer 3
  {dc5ef32d-65cd-495e-b8f9-90325f26458a}; !- Layer 4

OS:StandardsInformation:Construction,
  {84ca524b-31b2-4756-be8a-3408142b54c3}, !- Handle
  {07ed5d87-d94f-48c4-ba64-0cfa2245fbc0}, !- Construction Name
  ExteriorWall,                           !- Intended Surface Type
  Mass;                                   !- Standards Construction Type

OS:Construction,
  {3d520dcb-71dd-49e2-aa78-962efbe8ed8f}, !- Handle
  ASHRAE 189.1-2009 ExtWall Mass ClimateZone alt-res 2, !- Name
  ,                                       !- Surface Rendering Name
  {d2b3d669-b9bf-40fc-aa22-1b48913f7126}, !- Layer 1
  {b9568eb3-b504-4419-a456-521779141edf}, !- Layer 2
  {ba6c0bf8-9fb5-484c-b59c-db4ea0f34b0c}, !- Layer 3
  {dc5ef32d-65cd-495e-b8f9-90325f26458a}; !- Layer 4

OS:StandardsInformation:Construction,
  {12f48b7d-9f43-40ac-bd65-ad767e47020e}, !- Handle
  {3d520dcb-71dd-49e2-aa78-962efbe8ed8f}, !- Construction Name
  ExteriorWall,                           !- Intended Surface Type
  Mass;                                   !- Standards Construction Type

OS:Construction,
  {a187c8e1-2e09-46cf-a850-894330e4d3a7}, !- Handle
  ASHRAE 189.1-2009 ExtWall Mass ClimateZone alt-res 3, !- Name
  ,                                       !- Surface Rendering Name
  {d2b3d669-b9bf-40fc-aa22-1b48913f7126}, !- Layer 1
  {b9568eb3-b504-4419-a456-521779141edf}, !- Layer 2
  {8c5811a9-ac21-4051-bdbb-f4152121da9e}, !- Layer 3
  {dc5ef32d-65cd-495e-b8f9-90325f26458a}; !- Layer 4

OS:StandardsInformation:Construction,
  {577af735-7c6c-403d-b459-a9217c4bd027}, !- Handle
  {a187c8e1-2e09-46cf-a850-894330e4d3a7}, !- Construction Name
  ExteriorWall,                           !- Intended Surface Type
  Mass;                                   !- Standards Construction Type

OS:Construction,
  {fdafa046-2058-4b34-9143-a3ef2e80e933}, !- Handle
  ASHRAE 189.1-2009 ExtWall Mass ClimateZone alt-res 4, !- Name
  ,                                       !- Surface Rendering Name
  {d2b3d669-b9bf-40fc-aa22-1b48913f7126}, !- Layer 1
  {b9568eb3-b504-4419-a456-521779141edf}, !- Layer 2
  {093920d3-ffa7-4df1-9412-78b0400055e0}, !- Layer 3
  {dc5ef32d-65cd-495e-b8f9-90325f26458a}; !- Layer 4

OS:StandardsInformation:Construction,
  {d3d09fc2-5012-4f52-a841-453cf0f17ec6}, !- Handle
  {fdafa046-2058-4b34-9143-a3ef2e80e933}, !- Construction Name
  ExteriorWall,                           !- Intended Surface Type
  Mass;                                   !- Standards Construction Type

OS:Construction,
  {06b66985-00b1-4ea0-bf4b-346064366036}, !- Handle
  ASHRAE 189.1-2009 ExtWall Mass ClimateZone alt-res 5, !- Name
  ,                                       !- Surface Rendering Name
  {d2b3d669-b9bf-40fc-aa22-1b48913f7126}, !- Layer 1
  {b9568eb3-b504-4419-a456-521779141edf}, !- Layer 2
  {923a75b2-160b-4644-8719-a9052f9082e9}, !- Layer 3
  {dc5ef32d-65cd-495e-b8f9-90325f26458a}; !- Layer 4

OS:StandardsInformation:Construction,
  {23303324-d261-4a35-a78d-2da9682dcf39}, !- Handle
  {06b66985-00b1-4ea0-bf4b-346064366036}, !- Construction Name
  ExteriorWall,                           !- Intended Surface Type
  Mass;                                   !- Standards Construction Type

OS:Construction,
  {f02d30c8-164e-43be-96d1-30c0bf459a21}, !- Handle
  ASHRAE 189.1-2009 ExtWall Mass ClimateZone alt-res 6, !- Name
  ,                                       !- Surface Rendering Name
  {d2b3d669-b9bf-40fc-aa22-1b48913f7126}, !- Layer 1
  {b9568eb3-b504-4419-a456-521779141edf}, !- Layer 2
  {c0918270-f334-4628-a3a3-1273994a8729}, !- Layer 3
  {dc5ef32d-65cd-495e-b8f9-90325f26458a}; !- Layer 4

OS:StandardsInformation:Construction,
  {25fb7d9b-ee5e-47d0-9e53-ceea699d9706}, !- Handle
  {f02d30c8-164e-43be-96d1-30c0bf459a21}, !- Construction Name
  ExteriorWall,                           !- Intended Surface Type
  Mass;                                   !- Standards Construction Type

OS:Construction,
  {631c7934-ca78-4c54-afc8-c01577e53c0e}, !- Handle
  ASHRAE 189.1-2009 ExtWall Mass ClimateZone alt-res 7, !- Name
  ,                                       !- Surface Rendering Name
  {d2b3d669-b9bf-40fc-aa22-1b48913f7126}, !- Layer 1
  {b9568eb3-b504-4419-a456-521779141edf}, !- Layer 2
  {c0918270-f334-4628-a3a3-1273994a8729}, !- Layer 3
  {dc5ef32d-65cd-495e-b8f9-90325f26458a}; !- Layer 4

OS:StandardsInformation:Construction,
  {91aa792c-c475-45e3-b3a6-7fc6eb6e3870}, !- Handle
  {631c7934-ca78-4c54-afc8-c01577e53c0e}, !- Construction Name
  ExteriorWall,                           !- Intended Surface Type