
OS:Version,
  {8081a969-2296-4cd9-aa7d-67748e3bd039}, !- Handle
  2.3.0;                                  !- Version Identifier

OS:Construction,
  {8606b218-add5-485f-a3f4-19986c294dc6}, !- Handle
  ASHRAE 189.1-2009 AtticFloor ClimateZone 1-8, !- Name
  ,                                       !- Surface Rendering Name
  {12e4ab0b-7dc5-4490-81a0-cc44c4f185aa}, !- Layer 1
  {31580714-b57a-4c1d-b762-9193d9329601}, !- Layer 2
  {12e4ab0b-7dc5-4490-81a0-cc44c4f185aa}; !- Layer 3

OS:StandardsInformation:Construction,
  {1fa864f1-d59e-4693-963c-995f6a169295}, !- Handle
  {8606b218-add5-485f-a3f4-19986c294dc6}, !- Construction Name
  AtticFloor,                             !- Intended Surface Type
  WoodFramed,                             !- Standards Construction Type
  ,                                       !- Perturbable Layer
  ,                                       !- Perturbable Layer Type
  ,                                       !- Other Perturbable Layer Type
  ASHRAE 189.1-2009;                      !- Construction Standard

OS:Material,
  {12e4ab0b-7dc5-4490-81a0-cc44c4f185aa}, !- Handle
  1/2IN Gypsum,                           !- Name
  Smooth,                                 !- Roughness
  0.0127,                                 !- Thickness {m}
  0.16,                                   !- Conductivity {W/m-K}
  784.9,                                  !- Density {kg/m3}
  830.000000000001,                       !- Specific Heat {J/kg-K}
  0.9,                                    !- Thermal Absorptance
  0.4,                                    !- Solar Absorptance
  0.4;                                    !- Visible Absorptance

OS:StandardsInformation:Material,
  {e21ae567-db7c-4c1a-a0cb-aa5c2e3e0e35}, !- Handle
  {12e4ab0b-7dc5-4490-81a0-cc44c4f185aa}; !- Material Name

OS:Material,
  {31580714-b57a-4c1d-b762-9193d9329601}, !- Handle
  AtticFloor Insulation,                  !- Name
  MediumRough,                            !- Roughness
  0.2379,                                 !- Thickness {m}
  0.049,                                  !- Conductivity {W/m-K}
  265,                                    !- Density {kg/m3}
  836.800000000001,                       !- Specific Heat {J/kg-K}
  0.9,                                    !- Thermal Absorptance
  0.7,                                    !- Solar Absorptance
  0.7;                                    !- Visible Absorptance

OS:StandardsInformation:Material,
  {a9d9c387-6ddd-4fc2-8917-b7c92222cd3c}, !- Handle
  {31580714-b57a-4c1d-b762-9193d9329601}; !- Material Name

OS:Construction,
  {3d942d65-3c79-4fef-b6bd-bd5fd2b7464c}, !- Handle
  ASHRAE 189.1-2009 ExtRoof IEAD ClimateZone 1, !- Name
  ,                                       !- Surface Rendering Name
  {b93885db-58cb-4160-981e-a68c53a935db}, !- Layer 1
  {3d072e09-f3cc-4d58-9a9d-607533137b61}, !- Layer 2
  {02dc5b84-fb65-46e0-9b10-df24a8998eac}; !- Layer 3

OS:StandardsInformation:Construction,
  {e84ef389-a69b-41f2-8ff7-156e6c86d819}, !- Handle
  {3d942d65-3c79-4fef-b6bd-bd5fd2b7464c}, !- Construction Name
  ExteriorRoof,                           !- Intended Surface Type
  IEAD,                                   !- Standards Construction Type
  ,                                       !- Perturbable Layer
  ,                                       !- Perturbable Layer Type
  ,                                       !- Other Perturbable Layer Type
  ASHRAE 189.1-2009;                      !- Construction Standard

OS:Material,
  {b93885db-58cb-4160-981e-a68c53a935db}, !- Handle
  Roof Membrane,                          !- Name
  VeryRough,                              !- Roughness
  0.0095,                                 !- Thickness {m}
  0.16,                                   !- Conductivity {W/m-K}
  1121.29,                                !- Density {kg/m3}
  1460,                                   !- Specific Heat {J/kg-K}
  0.9,                                    !- Thermal Absorptance
  0.7,                                    !- Solar Absorptance
  0.7;                                    !- Visible Absorptance

OS:StandardsInformation:Material,
  {fb11f33d-7bd3-4ad7-979d-ca5a31afe1a8}, !- Handle
  {b93885db-58cb-4160-981e-a68c53a935db}; !- Material Name

OS:Material,
  {3d072e09-f3cc-4d58-9a9d-607533137b61}, !- Handle
  Roof Insulation [18],                   !- Name
  MediumRough,                            !- Roughness
  0.1693,                                 !- Thickness {m}
  0.049,                                  !- Conductivity {W/m-K}
  265,                                    !- Density {kg/m3}
  836.800000000001,                       !- Specific Heat {J/kg-K}
  0.9,                                    !- Thermal Absorptance
  0.7,                                    !- Solar Absorptance
  0.7;                                    !- Visible Absorptance

OS:StandardsInformation:Material,
  {6ec1267a-dc35-456c-b431-badf11b42beb}, !- Handle
  {3d072e09-f3cc-4d58-9a9d-607533137b61}; !- Material Name

OS:Material,
  {02dc5b84-fb65-46e0-9b10-df24a8998eac}, !- Handle
  Metal Decking,                          !- Name
  MediumSmooth,                           !- Roughness
  0.0015,                                 !- Thickness {m}
  45.006,                                 !- Conductivity {W/m-K}
  7680,                                   !- Density {kg/m3}
  418.4,                                  !- Specific Heat {J/kg-K}
  0.9,                                    !- Thermal Absorptance
  0.6,                                    !- Solar Absorptance
  0.6;                                    !- Visible Absorptance

OS:StandardsInformation:Material,
  {f6122545-94de-4384-a3cf-afa7744e1d87}, !- Handle
  {02dc5b84-fb65-46e0-9b10-df24a8998eac}; !- Material Name

OS:Construction,
  {2f038beb-4cba-49df-9b3b-b487489abf23}, !- Handle
  ASHRAE 189.1-2009 ExtRoof IEAD ClimateZone 2-5, !- Name
  ,                                       !- Surface Rendering Name
  {b93885db-58cb-4160-981e-a68c53a935db}, !- Layer 1
  {a995370f-65f5-45e7-8193-b8e367510266}, !- Layer 2
  {02dc5b84-fb65-46e0-9b10-df24a8998eac}; !- Layer 3

OS:StandardsInformation:Construction,
  {ca5be94a-6e2e-46f1-8857-8218a3ed5153}, !- Handle
  {2f038beb-4cba-49df-9b3b-b487489abf23}, !- Construction Name
  ExteriorRoof,                           !- Intended Surface Type
  IEAD,                                   !- Standards Construction Type
  ,                                       !- Perturbable Layer
  ,                                       !- Perturbable Layer Type
  ,                                       !- Other Perturbable Layer Type
  ASHRAE 189.1-2009;                      !- Construction Standard

OS:Material,
  {a995370f-65f5-45e7-8193-b8e367510266}, !- Handle
  Roof Insulation [21],                   !- Name
  MediumRough,                            !- Roughness
  0.2105,                                 !- Thickness {m}
  0.049,                                  !- Conductivity {W/m-K}
  265,                                    !- Density {kg/m3}
  836.800000000001,                       !- Specific Heat {J/kg-K}
  0.9,                                    !- Thermal Absorptance
  0.7,                                    !- Solar Absorptance
  0.7;                                    !- Visible Absorptance

OS:StandardsInformation:Material,
  {9da3294e-2ae4-4fca-97cc-b8a6e73cadc7}, !- Handle
  {a995370f-65f5-45e7-8193-b8e367510266}; !- Material Name

OS:Construction,
  {5b2f262b-64df-4e6e-97e6-5ba54b2e85f1}, !- Handle
  ASHRAE 189.1-2009 ExtRoof IEAD ClimateZone 6, !- Name
  ,                                       !- Surface Rendering Name
  {b93885db-58cb-4160-981e-a68c53a935db}, !- Layer 1
  {99b4973d-e751-49e2-bf44-41ccabacc2fe}, !- Layer 2
  {02dc5b84-fb65-46e0-9b10-df24a8998eac}; !- Layer 3

OS:StandardsInformation:Construction,
  {4a3252da-3251-486d-a043-db94beb41561}, !- Handle
  {5b2f262b-64df-4e6e-97e6-5ba54b2e85f1}, !- Construction Name
  ExteriorRoof,                           !- Intended Surface Type
  IEAD,                                   !- Standards Construction Type
  ,                                       !- Perturbable Layer
  ,                                       !- Perturbable Layer Type
  ,                                       !- Other Perturbable Layer Type
  ASHRAE 189.1-2009;                      !- Construction Standard

OS:Material,
  {99b4973d-e751-49e2-bf44-41ccabacc2fe}, !- Handle
  Roof Insulation [24],                   !- Name
  MediumRough,                            !- Roughness
  0.260100000000001,                      !- Thickness {m}
  0.049,                                  !- Conductivity {W/m-K}
  265,                                    !- Density {kg/m3}
  836.800000000001,                       !- Specific Heat {J/kg-K}
  0.9,                                    !- Thermal Absorptance
  0.7,                                    !- Solar Absorptance
  0.7;                                    !- Visible Absorptance

OS:StandardsInformation:Material,
  {581bbf1d-76cc-4b0a-92b0-273711ff321e}, !- Handle
  {99b4973d-e751-49e2-bf44-41ccabacc2fe}; !- Material Name

OS:Construction,
  {8ff0aa15-e056-4a2c-882e-137e24f94074}, !- Handle
  ASHRAE 189.1-2009 ExtRoof IEAD ClimateZone 7-8, !- Name
  ,                                       !- Surface Rendering Name
  {b93885db-58cb-4160-981e-a68c53a935db}, !- Layer 1
  {57230476-1ffb-4d48-a295-182f543dc1a0}, !- Layer 2
  {02dc5b84-fb65-46e0-9b10-df24a8998eac}; !- Layer 3

OS:StandardsInformation:Construction,
  {fa28b11a-34c2-4be4-9def-f94e24771387}, !- Handle
  {8ff0aa15-e056-4a2c-882e-137e24f94074}, !- Construction Name
  ExteriorRoof,                           !- Intended Surface Type
  IEAD,                                   !- Standards Construction Type
  ,                                       !- Perturbable Layer
  ,                                       !- Perturbable Layer Type
  ,                                       !- Other Perturbable Layer Type
  ASHRAE 189.1-2009;                      !- Construction Standard

OS:Material,
  {57230476-1ffb-4d48-a295-182f543dc1a0}, !- Handle
  Roof Insulation [26],                   !- Name
  MediumRough,                            !- Roughness
  0.2941,                                 !- Thickness {m}
  0.049,                                  !- Conductivity {W/m-K}
  265,                                    !- Density {kg/m3}
  836.800000000001,                       !- Specific Heat {J/kg-K}
  0.9,                                    !- Thermal Absorptance
  0.7,                                    !- Solar Absorptance
  0.7;                                    !- Visible Absorptance

OS:StandardsInformation:Material,
  {a2df7868-e254-418a-8249-e4cf7a9c96b0}, !- Handle
  {57230476-1ffb-4d48-a295-182f543dc1a0}; !- Material Name

OS:Construction,
  {b622c4d3-1ed0-4fe6-964a-8c62f1b01360}, !- Handle
  ASHRAE 189.1-2009 ExtRoof Metal ClimateZone 1, !- Name
  ,                                       !- Surface Rendering Name
  {5caf7808-feeb-42b7-a40d-2ec83c17e429}, !- Layer 1
  {e12f3d5e-9786-4c5b-a32e-12f132da93de}, !- Layer 2
  {02dc5b84-fb65-46e0-9b10-df24a8998eac}; !- Layer 3

OS:StandardsInformation:Construction,
  {a2313393-1132-4bd5-b4ae-4fd91094684f}, !- Handle
  {b622c4d3-1ed0-4fe6-964a-8c62f1b01360}, !- Construction Name
  ExteriorRoof,                           !- Intended Surface Type
  Metal,                                  !- Standards Construction Type
  ,                                       !- Perturbable Layer
  ,                                       !- Perturbable Layer Type
  ,                                       !- Other Perturbable Layer Type
  ASHRAE 189.1-2009;                      !- Construction Standard

OS:Material,
  {5caf7808-feeb-42b7-a40d-2ec83c17e429}, !- Handle
  Metal Roofing,                          !- Name
  MediumSmooth,                           !- Roughness
  0.0015,                                 !- Thickness {m}
  45.006,                                 !- Conductivity {W/m-K}
  7680,                                   !- Density {kg/m3}
  418.4,                                  !- Specific Heat {J/kg-K}
  0.9,                                    !- Thermal Absorptance
  0.6,                                    !- Solar Absorptance
  0.6;                                    !- Visible Absorptance

OS:StandardsInformation:Material,
  {07b3f0e2-3e48-41ee-974b-4c87b06beeff}, !- Handle
  {5caf7808-feeb-42b7-a40d-2ec83c17e429}; !- Material Name

OS:Material,
  {e12f3d5e-9786-4c5b-a32e-12f132da93de}, !- Handle
  Roof Insulation [19],                   !- Name
  MediumRough,                            !- Roughness
  0.1868,                                 !- Thickness {m}
  0.049,                                  !- Conductivity {W/m-K}
  265,                                    !- Density {kg/m3}
  836.800000000001,                       !- Specific Heat {J/kg-K}
  0.9,                                    !- Thermal Absorptance
  0.7,                                    !- Solar Absorptance
  0.7;                                    !- Visible Absorptance

OS:StandardsInformation:Material,
  {f8596e9e-9626-4b11-a43a-3b2a665a74ca}, !- Handle
  {e12f3d5e-9786-4c5b-a32e-12f132da93de}; !- Material Name

OS:Construction,
  {290acbe4-33dd-425d-9d36-8178ce0db756}, !- Handle
  ASHRAE 189.1-2009 ExtRoof Metal ClimateZone 2-5, !- Name
  ,                                       !- Surface Rendering Name
  {5caf7808-feeb-42b7-a40d-2ec83c17e429}, !- Layer 1
  {8e359e94-e2bc-42d6-bafa-d0717c55cfd7}, !- Layer 2
  {02dc5b84-fb65-46e0-9b10-df24a8998eac}; !- Layer 3

OS:StandardsInformation:Construction,
  {84f455a3-2397-4b5d-8f94-a477847f9930}, !- Handle
  {290acbe4-33dd-425d-9d36-8178ce0db756}, !- Construction Name
  ExteriorRoof,                           !- Intended Surface Type
  Metal,                                  !- Standards Construction Type
  ,                                       !- Perturbable Layer
  ,                                       !- Perturbable Layer Type
  ,                                       !- Other Perturbable Layer Type
  ASHRAE 189.1-2009;                      !- Construction Standard

OS:Material,
  {8e359e94-e2bc-42d6-bafa-d0717c55cfd7}, !- Handle
  Roof Insulation [22],                   !- Name
  MediumRough,                            !- Roughness
  0.2358,                                 !- Thickness {m}
  0.049,                                  !- Conductivity {W/m-K}
  265,                                    !- Density {kg/m3}
  836.800000000001,                       !- Specific Heat {J/kg-K}
  0.9,                                    !- Thermal Absorptance
  0.7,                                    !- Solar Absorptance
  0.7;                                    !- Visible Absorptance

OS:StandardsInformation:Material,
  {f5903755-6fce-4fde-bee0-129834b58622}, !- Handle
  {8e359e94-e2bc-42d6-bafa-d0717c55cfd7}; !- Material Name

OS:Construction,
  {9dc736b0-4bbb-4ecb-becb-220cf106b0c8}, !- Handle
  ASHRAE 189.1-2009 ExtRoof Metal ClimateZone 6, !- Name
  ,                                       !- Surface Rendering Name
  {5caf7808-feeb-42b7-a40d-2ec83c17e429}, !- Layer 1
  {ca0ee83f-eb78-4470-9606-e1ad84b1b27b}, !- Layer 2
  {02dc5b84-fb65-46e0-9b10-df24a8998eac}; !- Layer 3

OS:StandardsInformation:Construction,
  {df457c6f-51ee-4fbc-8a1c-85de2cea6c24}, !- Handle
  {9dc736b0-4bbb-4ecb-becb-220cf106b0c8}, !- Construction Name
  ExteriorRoof,                           !- Intended Surface Type
  Metal,                                  !- Standards Construction Type
  ,                                       !- Perturbable Layer
  ,                                       !- Perturbable Layer Type
  ,                                       !- Other Perturbable Layer Type
  ASHRAE 189.1-2009;                      !- Construction Standard

OS:Material,
  {ca0ee83f-eb78-4470-9606-e1ad84b1b27b}, !- Handle
  Roof Insulation [25],                   !- Name
  MediumRough,                            !- Roughness
  0.263,                                  !- Thickness {m}
  0.049,                                  !- Conductivity {W/m-K}
  265,                                    !- Density {kg/m3}
  836.800000000001,                       !- Specific Heat {J/kg-K}
  0.9,                                    !- Thermal Absorptance
  0.7,                                    !- Solar Absorptance
  0.7;                                    !- Visible Absorptance

OS:StandardsInformation:Material,
  {ae0a3ba2-94f1-455a-ad56-277a7364604a}, !- Handle
  {ca0ee83f-eb78-4470-9606-e1ad84b1b27b}; !- Material Name

OS:Construction,
  {50c751ad-a9ea-41ba-a05b-e677ee6915d0}, !- Handle
  ASHRAE 189.1-2009 ExtRoof Metal ClimateZone 7-8, !- Name
  ,                                       !- Surface Rendering Name
  {5caf7808-feeb-42b7-a40d-2ec83c17e429}, !- Layer 1
  {b7f73dbe-6ccd-4ae5-98a3-5a86ec9d2610}, !- Layer 2
  {02dc5b84-fb65-46e0-9b10-df24a8998eac}; !- Layer 3

OS:StandardsInformation:Construction,
  {ebacf8d0-d547-4ccb-bfae-879f55b69b39}, !- Handle
  {50c751ad-a9ea-41ba-a05b-e677ee6915d0}, !- Construction Name
  ExteriorRoof,                           !- Intended Surface Type
  Metal,                                  !- Standards Construction Type
  ,                                       !- Perturbable Layer
  ,                                       !- Perturbable Layer Type
  ,                                       !- Other Perturbable Layer Type
  ASHRAE 189.1-2009;                      !- Construction Standard

OS:Material,
  {b7f73dbe-6ccd-4ae5-98a3-5a86ec9d2610}, !- Handle
  Roof Insulation [27],                   !- Name
  MediumRough,                            !- Roughness
  0.297000000000001,                      !- Thickness {m}
  0.049,                                  !- Conductivity {W/m-K}
  265,                                    !- Density {kg/m3}
  836.800000000001,                       !- Specific Heat {J/kg-K}
  0.9,                                    !- Thermal Absorptance
  0.7,                                    !- Solar Absorptance
  0.7;                                    !- Visible Absorptance

OS:StandardsInformation:Material,
  {08db126a-f626-4ce4-921f-b4f1b904b2b8}, !- Handle
  {b7f73dbe-6ccd-4ae5-98a3-5a86ec9d2610}; !- Material Name

OS:Construction,
  {b062b41f-033d-4af0-938c-9eddd692130e}, !- Handle
  ASHRAE 189.1-2009 ExtWall Mass ClimateZone 1, !- Name
  ,                                       !- Surface Rendering Name
  {ff9b3e2c-c838-4296-889b-133bb1c8d4b5}, !- Layer 1
  {7e671644-45ed-4c2a-9001-c855516a6483}, !- Layer 2
  {dff24b69-f141-4442-9c0b-a92fd9225e4b}, !- Layer 3
  {12e4ab0b-7dc5-4490-81a0-cc44c4f185aa}; !- Layer 4

OS:StandardsInformation:Construction,
  {205a811f-d7ea-462c-bee4-79a4009e889b}, !- Handle
  {b062b41f-033d-4af0-938c-9eddd692130e}, !- Construction Name
  ExteriorWall,                           !- Intended Surface Type
  Mass,                                   !- Standards Construction Type
  ,                                       !- Perturbable Layer
  ,                                       !- Perturbable Layer Type
  ,                                       !- Other Perturbable Layer Type
  ASHRAE 189.1-2009;                      !- Construction Standard

OS:Material,
  {ff9b3e2c-c838-4296-889b-133bb1c8d4b5}, !- Handle
  1IN Stucco,                             !- Name
  Smooth,                                 !- Roughness
  0.0253,                                 !- Thickness {m}
  0.691799999999999,                      !- Conductivity {W/m-K}
  1858,                                   !- Density {kg/m3}
  836.999999999999,                       !- Specific Heat {J/kg-K}
  0.9,                                    !- Thermal Absorptance
  0.92,                                   !- Solar Absorptance
  0.92;                                   !- Visible Absorptance

OS:StandardsInformation:Material,
  {11843aba-9a8d-41f8-b08a-f65d8bba04e4}, !- Handle
  {ff9b3e2c-c838-4296-889b-133bb1c8d4b5}; !- Material Name

OS:Material,
  {7e671644-45ed-4c2a-9001-c855516a6483}, !- Handle
  8IN Concrete HW,                        !- Name
  MediumRough,                            !- Roughness
  0.2033,                                 !- Thickness {m}
  1.72959999999999,                       !- Conductivity {W/m-K}
  2242.99999999999,                       !- Density {kg/m3}
  836.999999999999,                       !- Specific Heat {J/kg-K}
  0.9,                                    !- Thermal Absorptance
  0.65,                                   !- Solar Absorptance
  0.65;                                   !- Visible Absorptance

OS:StandardsInformation:Material,
  {198b8009-b73d-4be4-bb2a-7546d3f8f01a}, !- Handle
  {7e671644-45ed-4c2a-9001-c855516a6483}; !- Material Name

OS:Material,
  {dff24b69-f141-4442-9c0b-a92fd9225e4b}, !- Handle
  Wall Insulation [31],                   !- Name
  MediumRough,                            !- Roughness
  0.0337000000000001,                     !- Thickness {m}
  0.0432,                                 !- Conductivity {W/m-K}
  91,                                     !- Density {kg/m3}
  836.999999999999,                       !- Specific Heat {J/kg-K}
  0.9,                                    !- Thermal Absorptance
  0.5,                                    !- Solar Absorptance
  0.5;                                    !- Visible Absorptance

OS:StandardsInformation:Material,
  {83912702-e456-4239-9c14-6594b5e5ab64}, !- Handle
  {dff24b69-f141-4442-9c0b-a92fd9225e4b}; !- Material Name

OS:Construction,
  {9f0a2f09-5129-4067-9c74-87156cf9aeba}, !- Handle
  ASHRAE 189.1-2009 ExtWall Mass ClimateZone 2, !- Name
  ,                                       !- Surface Rendering Name
  {ff9b3e2c-c838-4296-889b-133bb1c8d4b5}, !- Layer 1
  {7e671644-45ed-4c2a-9001-c855516a6483}, !- Layer 2
  {da04d3d4-ebb1-4618-85f1-e850fd8ab9b8}, !- Layer 3
  {12e4ab0b-7dc5-4490-81a0-cc44c4f185aa}; !- Layer 4

OS:StandardsInformation:Construction,
  {eaa97a67-2040-4d4e-9074-d4a92e8603ea}, !- Handle
  {9f0a2f09-5129-4067-9c74-87156cf9aeba}, !- Construction Name
  ExteriorWall,                           !- Intended Surface Type
  Mass,                                   !- Standards Construction Type
  ,                                       !- Perturbable Layer
  ,                                       !- Perturbable Layer Type
  ,                                       !- Other Perturbable Layer Type
  ASHRAE 189.1-2009;                      !- Construction Standard

OS:Material,
  {da04d3d4-ebb1-4618-85f1-e850fd8ab9b8}, !- Handle
  Wall Insulation [35],                   !- Name
  MediumRough,                            !- Roughness
  0.0452,                                 !- Thickness {m}
  0.0432,                                 !- Conductivity {W/m-K}
  91,                                     !- Density {kg/m3}
  836.999999999999,                       !- Specific Heat {J/kg-K}
  0.9,                                    !- Thermal Absorptance
  0.5,                                    !- Solar Absorptance
  0.5;                                    !- Visible Absorptance

OS:StandardsInformation:Material,
  {eeb17879-9811-4286-969d-ed8edb9fafe4}, !- Handle
  {da04d3d4-ebb1-4618-85f1-e850fd8ab9b8}; !- Material Name

OS:Construction,
  {c8dae5b3-dda5-4dea-b664-0282ff9ba3ce}, !- Handle
  ASHRAE 189.1-2009 ExtWall Mass ClimateZone 3, !- Name
  ,                                       !- Surface Rendering Name
  {ff9b3e2c-c838-4296-889b-133bb1c8d4b5}, !- Layer 1
  {7e671644-45ed-4c2a-9001-c855516a6483}, !- Layer 2
  {d8b6b94c-333f-4592-bde3-0046f3daef05}, !- Layer 3
  {12e4ab0b-7dc5-4490-81a0-cc44c4f185aa}; !- Layer 4

OS:StandardsInformation:Construction,
  {08632659-a384-47e1-8935-abdc2d030ead}, !- Handle
  {c8dae5b3-dda5-4dea-b664-0282ff9ba3ce}, !- Construction Name
  ExteriorWall,                           !- Intended Surface Type
  Mass,                                   !- Standards Construction Type
  ,                                       !- Perturbable Layer
  ,                                       !- Perturbable Layer Type
  ,                                       !- Other Perturbable Layer Type
  ASHRAE 189.1-2009;                      !- Construction Standard

OS:Material,
  {d8b6b94c-333f-4592-bde3-0046f3daef05}, !- Handle
  Wall Insulation [36],                   !- Name
  MediumRough,                            !- Roughness
  0.0565999999999999,                     !- Thickness {m}
  0.0432,                                 !- Conductivity {W/m-K}
  91,                                     !- Density {kg/m3}
  836.999999999999,                       !- Specific Heat {J/kg-K}
  0.9,                                    !- Thermal Absorptance
  0.5,                                    !- Solar Absorptance
  0.5;                                    !- Visible Absorptance

OS:StandardsInformation:Material,
  {4d954d03-8210-47d2-98c1-c63e7469a457}, !- Handle
  {d8b6b94c-333f-4592-bde3-0046f3daef05}; !- Material Name

OS:Construction,
  {667f5ee5-e759-4c5c-82c2-c183b5b13e4a}, !- Handle
  ASHRAE 189.1-2009 ExtWall Mass ClimateZone 4, !- Name
  ,                                       !- Surface Rendering Name
  {ff9b3e2c-c838-4296-889b-133bb1c8d4b5}, !- Layer 1
  {7e671644-45ed-4c2a-9001-c855516a6483}, !- Layer 2
  {fb1f0f8e-4664-49f7-aad1-0353918786ed}, !- Layer 3
  {12e4ab0b-7dc5-4490-81a0-cc44c4f185aa}; !- Layer 4

OS:StandardsInformation:Construction,
  {97029618-818f-49c3-9267-ae1173a6dc3f}, !- Handle
  {667f5ee5-e759-4c5c-82c2-c183b5b13e4a}, !- Construction Name
  ExteriorWall,                           !- Intended Surface Type
  Mass,                                   !- Standards Construction Type
  ,                                       !- Perturbable Layer
  ,                                       !- Perturbable Layer Type
  ,                                       !- Other Perturbable Layer Type
  ASHRAE 189.1-2009;                      !- Construction Standard

OS:Material,
  {fb1f0f8e-4664-49f7-aad1-0353918786ed}, !- Handle
  Wall Insulation [37],                   !- Name
  MediumRough,                            !- Roughness
  0.0680999999999999,                     !- Thickness {m}
  0.0432,                                 !- Conductivity {W/m-K}
  91,                                     !- Density {kg/m3}
  836.999999999999,                       !- Specific Heat {J/kg-K}
  0.9,                                    !- Thermal Absorptance
  0.5,                                    !- Solar Absorptance
  0.5;                                    !- Visible Absorptance

OS:StandardsInformation:Material,
  {7638877a-75e2-4a15-aff5-174d1b869a12}, !- Handle
  {fb1f0f8e-4664-49f7-aad1-0353918786ed}; !- Material Name

OS:Construction,
  {5a90584c-f3e2-4cb3-8dbf-dd4fc0cc2394}, !- Handle
  ASHRAE 189.1-2009 ExtWall Mass ClimateZone 5, !- Name
  ,                                       !- Surface Rendering Name
  {ff9b3e2c-c838-4296-889b-133bb1c8d4b5}, !- Layer 1
  {7e671644-45ed-4c2a-9001-c855516a6483}, !- Layer 2
  {c7ccd175-fc38-4f0e-9e17-87a450c7ab40}, !- Layer 3
  {12e4ab0b-7dc5-4490-81a0-cc44c4f185aa}; !- Layer 4

OS:StandardsInformation:Construction,
  {e47a7aad-e1e5-40e6-ab37-327a096d551d}, !- Handle
  {5a90584c-f3e2-4cb3-8dbf-dd4fc0cc2394}, !- Construction Name
  ExteriorWall,                           !- Intended Surface Type
  Mass,                                   !- Standards Construction Type
  ,                                       !- Perturbable Layer
  ,                                       !- Perturbable Layer Type
  ,                                       !- Other Perturbable Layer Type
  ASHRAE 189.1-2009;                      !- Construction Standard

OS:Material,
  {c7ccd175-fc38-4f0e-9e17-87a450c7ab40}, !- Handle
  Wall Insulation [40],                   !- Name
  MediumRough,                            !- Roughness
  0.0793999999999999,                     !- Thickness {m}
  0.0432,                                 !- Conductivity {W/m-K}
  91,                                     !- Density {kg/m3}
  836.999999999999,                       !- Specific Heat {J/kg-K}
  0.9,                                    !- Thermal Absorptance
  0.5,                                    !- Solar Absorptance
  0.5;                                    !- Visible Absorptance

OS:StandardsInformation:Material,
  {22ae55fa-68ae-4508-a591-2feb0d4d1c33}, !- Handle
  {c7ccd175-fc38-4f0e-9e17-87a450c7ab40}; !- Material Name

OS:Construction,
  {2e2c6d8f-fd4c-4aab-9217-7dc74287b570}, !- Handle
  ASHRAE 189.1-2009 ExtWall Mass ClimateZone 6, !- Name
  ,                                       !- Surface Rendering Name
  {ff9b3e2c-c838-4296-889b-133bb1c8d4b5}, !- Layer 1
  {7e671644-45ed-4c2a-9001-c855516a6483}, !- Layer 2
  {42a1eb2f-d4bb-4b5e-9220-c9dbb508df77}, !- Layer 3
  {12e4ab0b-7dc5-4490-81a0-cc44c4f185aa}; !- Layer 4

OS:StandardsInformation:Construction,
  {10935159-e446-42e0-8c29-08c4c10a3083}, !- Handle
  {2e2c6d8f-fd4c-4aab-9217-7dc74287b570}, !- Construction Name
  ExteriorWall,                           !- Intended Surface Type
  Mass,                                   !- Standards Construction Type
  ,                                       !- Perturbable Layer
  ,                                       !- Perturbable Layer Type
  ,                                       !- Other Perturbable Layer Type
  ASHRAE 189.1-2009;                      !- Construction Standard

OS:Material,
  {42a1eb2f-d4bb-4b5e-9220-c9dbb508df77}, !- Handle
  Wall Insulation [42],                   !- Name
  MediumRough,                            !- Roughness
  0.0913999999999999,                     !- Thickness {m}
  0.0432,                                 !- Conductivity {W/m-K}
  91,                                     !- Density {kg/m3}
  836.999999999999,                       !- Specific Heat {J/kg-K}