
OS:Version,
  {fb78b8e4-2d06-4172-92e1-92e9a9301ade}, !- Handle
  1.2.3;                                  !- Version Identifier

OS:Construction,
  {c8d51715-4062-4e89-a2e0-3513dbf5fd76}, !- Handle
  ASHRAE 189.1-2009 AtticFloor ClimateZone 1-8, !- Name
  ,                                       !- Surface Rendering Name
  {b049967e-8421-4ada-a269-46dcb7cb8efb}, !- Layer 1
  {31177507-d7b2-48aa-a7c8-a5037afa08eb}, !- Layer 2
  {b049967e-8421-4ada-a269-46dcb7cb8efb}; !- Layer 3

OS:StandardsInformation:Construction,
  {4919b275-5e7f-41c7-b8aa-3307c795e46d}, !- Handle
  {c8d51715-4062-4e89-a2e0-3513dbf5fd76}, !- Construction Name
  AtticFloor,                             !- Intended Surface Type
  ASHRAE 189.1-2009;                      !- Standards Construction Type

OS:Material,
  {b049967e-8421-4ada-a269-46dcb7cb8efb}, !- Handle
  1/2IN Gypsum,                           !- Name
  Smooth,                                 !- Roughness
  0.0127,                                 !- Thickness {m}
  0.16,                                   !- Conductivity {W/m-K}
  784.9,                                  !- Density {kg/m3}
  830.000000000001,                       !- Specific Heat {J/kg-K}
  0.9,                                    !- Thermal Absorptance
  0.92,                                   !- Solar Absorptance
  0.92;                                   !- Visible Absorptance

OS:Material,
  {31177507-d7b2-48aa-a7c8-a5037afa08eb}, !- Handle
  AtticFloor Insulation,                  !- Name
  MediumRough,                            !- Roughness
  0.2379,                                 !- Thickness {m}
  0.049,                                  !- Conductivity {W/m-K}
  265,                                    !- Density {kg/m3}
  836.800000000001,                       !- Specific Heat {J/kg-K}
  0.9,                                    !- Thermal Absorptance
  0.7,                                    !- Solar Absorptance
  0.7;                                    !- Visible Absorptance

OS:Construction,
  {2234f6c5-8754-40a7-9b13-05e1fd00b98c}, !- Handle
  ASHRAE 189.1-2009 ExtRoof IEAD ClimateZone 1, !- Name
  ,                                       !- Surface Rendering Name
  {87b0a2e4-91a1-49ce-8910-d8349975a86b}, !- Layer 1
  {0663215c-9135-4f13-ae1f-d11fa1c043ba}, !- Layer 2
  {ee8bd896-6f69-4118-b521-2ee99c899cb7}; !- Layer 3

OS:StandardsInformation:Construction,
  {c30baf10-78cd-44d1-ae1e-d8eeacd43cc2}, !- Handle
  {2234f6c5-8754-40a7-9b13-05e1fd00b98c}, !- Construction Name
  ExteriorRoof,                           !- Intended Surface Type
  ASHRAE 189.1-2009;                      !- Standards Construction Type

OS:Material,
  {87b0a2e4-91a1-49ce-8910-d8349975a86b}, !- Handle
  Roof Membrane,                          !- Name
  VeryRough,                              !- Roughness
  0.0095,                                 !- Thickness {m}
  0.16,                                   !- Conductivity {W/m-K}
  1121.29,                                !- Density {kg/m3}
  1460,                                   !- Specific Heat {J/kg-K}
  0.9,                                    !- Thermal Absorptance
  0.7,                                    !- Solar Absorptance
  0.7;                                    !- Visible Absorptance

OS:Material,
  {0663215c-9135-4f13-ae1f-d11fa1c043ba}, !- Handle
  Roof Insulation [18],                   !- Name
  MediumRough,                            !- Roughness
  0.1693,                                 !- Thickness {m}
  0.049,                                  !- Conductivity {W/m-K}
  265,                                    !- Density {kg/m3}
  836.800000000001,                       !- Specific Heat {J/kg-K}
  0.9,                                    !- Thermal Absorptance
  0.7,                                    !- Solar Absorptance
  0.7;                                    !- Visible Absorptance

OS:Material,
  {ee8bd896-6f69-4118-b521-2ee99c899cb7}, !- Handle
  Metal Decking,                          !- Name
  MediumSmooth,                           !- Roughness
  0.0015,                                 !- Thickness {m}
  45.006,                                 !- Conductivity {W/m-K}
  7680,                                   !- Density {kg/m3}
  418.4,                                  !- Specific Heat {J/kg-K}
  0.9,                                    !- Thermal Absorptance
  0.7,                                    !- Solar Absorptance
  0.3;                                    !- Visible Absorptance

OS:Construction,
  {964ba438-7158-4fe7-bbde-d342992b8af3}, !- Handle
  ASHRAE 189.1-2009 ExtRoof IEAD ClimateZone 2-5, !- Name
  ,                                       !- Surface Rendering Name
  {87b0a2e4-91a1-49ce-8910-d8349975a86b}, !- Layer 1
  {fa42ded2-b457-4824-a453-ac6dac394bd3}, !- Layer 2
  {ee8bd896-6f69-4118-b521-2ee99c899cb7}; !- Layer 3

OS:StandardsInformation:Construction,
  {ecde7a97-79ee-4ee7-9c01-1909de2bcfbf}, !- Handle
  {964ba438-7158-4fe7-bbde-d342992b8af3}, !- Construction Name
  ExteriorRoof,                           !- Intended Surface Type
  ASHRAE 189.1-2009;                      !- Standards Construction Type

OS:Material,
  {fa42ded2-b457-4824-a453-ac6dac394bd3}, !- Handle
  Roof Insulation [21],                   !- Name
  MediumRough,                            !- Roughness
  0.2105,                                 !- Thickness {m}
  0.049,                                  !- Conductivity {W/m-K}
  265,                                    !- Density {kg/m3}
  836.800000000001,                       !- Specific Heat {J/kg-K}
  0.9,                                    !- Thermal Absorptance
  0.7,                                    !- Solar Absorptance
  0.7;                                    !- Visible Absorptance

OS:Construction,
  {abb58ab5-9f49-4ffa-b2f9-e1bf519e8584}, !- Handle
  ASHRAE 189.1-2009 ExtRoof IEAD ClimateZone 6, !- Name
  ,                                       !- Surface Rendering Name
  {87b0a2e4-91a1-49ce-8910-d8349975a86b}, !- Layer 1
  {97070bc5-9e2f-46e0-a9c0-2184fe548aa3}, !- Layer 2
  {ee8bd896-6f69-4118-b521-2ee99c899cb7}; !- Layer 3

OS:StandardsInformation:Construction,
  {2ce38b57-2c43-475c-8ed7-0d8dee77b4a7}, !- Handle
  {abb58ab5-9f49-4ffa-b2f9-e1bf519e8584}, !- Construction Name
  ExteriorRoof,                           !- Intended Surface Type
  ASHRAE 189.1-2009;                      !- Standards Construction Type

OS:Material,
  {97070bc5-9e2f-46e0-a9c0-2184fe548aa3}, !- Handle
  Roof Insulation [24],                   !- Name
  MediumRough,                            !- Roughness
  0.260100000000001,                      !- Thickness {m}
  0.049,                                  !- Conductivity {W/m-K}
  265,                                    !- Density {kg/m3}
  836.800000000001,                       !- Specific Heat {J/kg-K}
  0.9,                                    !- Thermal Absorptance
  0.7,                                    !- Solar Absorptance
  0.7;                                    !- Visible Absorptance

OS:Construction,
  {f6c2801c-de8d-4db5-a4a2-36aec66d5587}, !- Handle
  ASHRAE 189.1-2009 ExtRoof IEAD ClimateZone 7-8, !- Name
  ,                                       !- Surface Rendering Name
  {87b0a2e4-91a1-49ce-8910-d8349975a86b}, !- Layer 1
  {301d842d-c98e-44e7-87be-127a8c3bb9b7}, !- Layer 2
  {ee8bd896-6f69-4118-b521-2ee99c899cb7}; !- Layer 3

OS:StandardsInformation:Construction,
  {30e22426-82b6-4235-a371-f36e72160cb2}, !- Handle
  {f6c2801c-de8d-4db5-a4a2-36aec66d5587}, !- Construction Name
  ExteriorRoof,                           !- Intended Surface Type
  ASHRAE 189.1-2009;                      !- Standards Construction Type

OS:Material,
  {301d842d-c98e-44e7-87be-127a8c3bb9b7}, !- Handle
  Roof Insulation [26],                   !- Name
  MediumRough,                            !- Roughness
  0.2941,                                 !- Thickness {m}
  0.049,                                  !- Conductivity {W/m-K}
  265,                                    !- Density {kg/m3}
  836.800000000001,                       !- Specific Heat {J/kg-K}
  0.9,                                    !- Thermal Absorptance
  0.7,                                    !- Solar Absorptance
  0.7;                                    !- Visible Absorptance

OS:Construction,
  {8614264b-bdbc-4e4f-8651-9fd17698d4dc}, !- Handle
  ASHRAE 189.1-2009 ExtRoof Metal ClimateZone 1, !- Name
  ,                                       !- Surface Rendering Name
  {7b524fd6-594f-4b2b-94c4-9b20e72eabe0}, !- Layer 1
  {ddde644c-8036-427e-9d01-111e4fb1f436}; !- Layer 2

OS:StandardsInformation:Construction,
  {ad98de53-67b5-4e01-9350-4eb3f077cd13}, !- Handle
  {8614264b-bdbc-4e4f-8651-9fd17698d4dc}, !- Construction Name
  ExteriorRoof,                           !- Intended Surface Type
  ASHRAE 189.1-2009;                      !- Standards Construction Type

OS:Material,
  {7b524fd6-594f-4b2b-94c4-9b20e72eabe0}, !- Handle
  Metal Roofing,                          !- Name
  MediumSmooth,                           !- Roughness
  0.0015,                                 !- Thickness {m}
  45.006,                                 !- Conductivity {W/m-K}
  7680,                                   !- Density {kg/m3}
  418.4,                                  !- Specific Heat {J/kg-K}
  0.9,                                    !- Thermal Absorptance
  0.3,                                    !- Solar Absorptance
  0.3;                                    !- Visible Absorptance

OS:Material,
  {ddde644c-8036-427e-9d01-111e4fb1f436}, !- Handle
  Roof Insulation [19],                   !- Name
  MediumRough,                            !- Roughness
  0.1868,                                 !- Thickness {m}
  0.049,                                  !- Conductivity {W/m-K}
  265,                                    !- Density {kg/m3}
  836.800000000001,                       !- Specific Heat {J/kg-K}
  0.9,                                    !- Thermal Absorptance
  0.7,                                    !- Solar Absorptance
  0.7;                                    !- Visible Absorptance

OS:Construction,
  {670fee57-829d-459f-af7b-ad020d419b3f}, !- Handle
  ASHRAE 189.1-2009 ExtRoof Metal ClimateZone 2-5, !- Name
  ,                                       !- Surface Rendering Name
  {7b524fd6-594f-4b2b-94c4-9b20e72eabe0}, !- Layer 1
  {86968e2f-7371-4648-a38c-299222e17bc1}; !- Layer 2

OS:StandardsInformation:Construction,
  {0934f2b5-a257-4cef-9ff2-e577009d6e57}, !- Handle
  {670fee57-829d-459f-af7b-ad020d419b3f}, !- Construction Name
  ExteriorRoof,                           !- Intended Surface Type
  ASHRAE 189.1-2009;                      !- Standards Construction Type

OS:Material,
  {86968e2f-7371-4648-a38c-299222e17bc1}, !- Handle
  Roof Insulation [22],                   !- Name
  MediumRough,                            !- Roughness
  0.2358,                                 !- Thickness {m}
  0.049,                                  !- Conductivity {W/m-K}
  265,                                    !- Density {kg/m3}
  836.800000000001,                       !- Specific Heat {J/kg-K}
  0.9,                                    !- Thermal Absorptance
  0.7,                                    !- Solar Absorptance
  0.7;                                    !- Visible Absorptance

OS:Construction,
  {27e8d90b-43b0-43da-9270-af46721c1ba9}, !- Handle
  ASHRAE 189.1-2009 ExtRoof Metal ClimateZone 6, !- Name
  ,                                       !- Surface Rendering Name
  {7b524fd6-594f-4b2b-94c4-9b20e72eabe0}, !- Layer 1
  {0d04cb38-8a5f-4778-a90e-3965bb6dd420}; !- Layer 2

OS:StandardsInformation:Construction,
  {e749c39c-7b34-4585-a46c-d0839e64c9f8}, !- Handle
  {27e8d90b-43b0-43da-9270-af46721c1ba9}, !- Construction Name
  ExteriorRoof,                           !- Intended Surface Type
  ASHRAE 189.1-2009;                      !- Standards Construction Type

OS:Material,
  {0d04cb38-8a5f-4778-a90e-3965bb6dd420}, !- Handle
  Roof Insulation [25],                   !- Name
  MediumRough,                            !- Roughness
  0.263,                                  !- Thickness {m}
  0.049,                                  !- Conductivity {W/m-K}
  265,                                    !- Density {kg/m3}
  836.800000000001,                       !- Specific Heat {J/kg-K}
  0.9,                                    !- Thermal Absorptance
  0.7,                                    !- Solar Absorptance
  0.7;                                    !- Visible Absorptance

OS:Construction,
  {5840726f-9583-4300-b2e6-5c0e330ae126}, !- Handle
  ASHRAE 189.1-2009 ExtRoof Metal ClimateZone 7-8, !- Name
  ,                                       !- Surface Rendering Name
  {7b524fd6-594f-4b2b-94c4-9b20e72eabe0}, !- Layer 1
  {38ad7905-be6c-4071-a3e3-2ba23e94ce9d}; !- Layer 2

OS:StandardsInformation:Construction,
  {6d6a0a14-061b-41b9-a383-e5308f74fdd7}, !- Handle
  {5840726f-9583-4300-b2e6-5c0e330ae126}, !- Construction Name
  ExteriorRoof,                           !- Intended Surface Type
  ASHRAE 189.1-2009;                      !- Standards Construction Type

OS:Material,
  {38ad7905-be6c-4071-a3e3-2ba23e94ce9d}, !- Handle
  Roof Insulation [27],                   !- Name
  MediumRough,                            !- Roughness
  0.297000000000001,                      !- Thickness {m}
  0.049,                                  !- Conductivity {W/m-K}
  265,                                    !- Density {kg/m3}
  836.800000000001,                       !- Specific Heat {J/kg-K}
  0.9,                                    !- Thermal Absorptance
  0.7,                                    !- Solar Absorptance
  0.7;                                    !- Visible Absorptance

OS:Construction,
  {d798bcea-6e52-45f8-8ad5-28c94c2cf02d}, !- Handle
  ASHRAE 189.1-2009 ExtWall Mass ClimateZone 1, !- Name
  ,                                       !- Surface Rendering Name
  {c237d55f-3f2b-43b4-a990-ce67854a6627}, !- Layer 1
  {cb65a7ba-0199-4aff-9b57-8d59cb521106}, !- Layer 2
  {514ece99-30cc-4a9e-a602-53ae4adce352}, !- Layer 3
  {b049967e-8421-4ada-a269-46dcb7cb8efb}; !- Layer 4

OS:StandardsInformation:Construction,
  {21a3db9b-e335-4605-968c-e4c031af3db6}, !- Handle
  {d798bcea-6e52-45f8-8ad5-28c94c2cf02d}, !- Construction Name
  ExteriorWall,                           !- Intended Surface Type
  ASHRAE 189.1-2009;                      !- Standards Construction Type

OS:Material,
  {c237d55f-3f2b-43b4-a990-ce67854a6627}, !- Handle
  1IN Stucco,                             !- Name
  Smooth,                                 !- Roughness
  0.0253,                                 !- Thickness {m}
  0.691799999999999,                      !- Conductivity {W/m-K}
  1858,                                   !- Density {kg/m3}
  836.999999999999,                       !- Specific Heat {J/kg-K}
  0.9,                                    !- Thermal Absorptance
  0.92,                                   !- Solar Absorptance
  0.92;                                   !- Visible Absorptance

OS:Material,
  {cb65a7ba-0199-4aff-9b57-8d59cb521106}, !- Handle
  8IN Concrete HW,                        !- Name
  MediumRough,                            !- Roughness
  0.2033,                                 !- Thickness {m}
  1.72959999999999,                       !- Conductivity {W/m-K}
  2242.99999999999,                       !- Density {kg/m3}
  836.999999999999,                       !- Specific Heat {J/kg-K}
  0.9,                                    !- Thermal Absorptance
  0.65,                                   !- Solar Absorptance
  0.65;                                   !- Visible Absorptance

OS:Material,
  {514ece99-30cc-4a9e-a602-53ae4adce352}, !- Handle
  Wall Insulation [31],                   !- Name
  MediumRough,                            !- Roughness
  0.0337000000000001,                     !- Thickness {m}
  0.0432,                                 !- Conductivity {W/m-K}
  91,                                     !- Density {kg/m3}
  836.999999999999,                       !- Specific Heat {J/kg-K}
  0.9,                                    !- Thermal Absorptance
  0.5,                                    !- Solar Absorptance
  0.5;                                    !- Visible Absorptance

OS:Construction,
  {1484e9cc-d315-42cb-9d1f-3c96ce0be98a}, !- Handle
  ASHRAE 189.1-2009 ExtWall Mass ClimateZone 2, !- Name
  ,                                       !- Surface Rendering Name
  {c237d55f-3f2b-43b4-a990-ce67854a6627}, !- Layer 1
  {cb65a7ba-0199-4aff-9b57-8d59cb521106}, !- Layer 2
  {be43e698-1ddf-4d5d-a3e6-81fd5740b65f}, !- Layer 3
  {b049967e-8421-4ada-a269-46dcb7cb8efb}; !- Layer 4

OS:StandardsInformation:Construction,
  {01a0e658-db13-4830-9c27-c1f3e97ce94b}, !- Handle
  {1484e9cc-d315-42cb-9d1f-3c96ce0be98a}, !- Construction Name
  ExteriorWall,                           !- Intended Surface Type
  ASHRAE 189.1-2009;                      !- Standards Construction Type

OS:Material,
  {be43e698-1ddf-4d5d-a3e6-81fd5740b65f}, !- Handle
  Wall Insulation [35],                   !- Name
  MediumRough,                            !- Roughness
  0.0452,                                 !- Thickness {m}
  0.0432,                                 !- Conductivity {W/m-K}
  91,                                     !- Density {kg/m3}
  836.999999999999,                       !- Specific Heat {J/kg-K}
  0.9,                                    !- Thermal Absorptance
  0.5,                                    !- Solar Absorptance
  0.5;                                    !- Visible Absorptance

OS:Construction,
  {f0a15c9a-5be7-4dfd-91b8-e4f5cadb8598}, !- Handle
  ASHRAE 189.1-2009 ExtWall Mass ClimateZone 3, !- Name
  ,                                       !- Surface Rendering Name
  {c237d55f-3f2b-43b4-a990-ce67854a6627}, !- Layer 1
  {cb65a7ba-0199-4aff-9b57-8d59cb521106}, !- Layer 2
  {bf7a37a7-b207-48c2-a1a5-43bc27be24db}, !- Layer 3
  {b049967e-8421-4ada-a269-46dcb7cb8efb}; !- Layer 4

OS:StandardsInformation:Construction,
  {5a0b8b3c-d32e-4caf-aaec-335cfe5ff969}, !- Handle
  {f0a15c9a-5be7-4dfd-91b8-e4f5cadb8598}, !- Construction Name
  ExteriorWall,                           !- Intended Surface Type
  ASHRAE 189.1-2009;                      !- Standards Construction Type

OS:Material,
  {bf7a37a7-b207-48c2-a1a5-43bc27be24db}, !- Handle
  Wall Insulation [36],                   !- Name
  MediumRough,                            !- Roughness
  0.0565999999999999,                     !- Thickness {m}
  0.0432,                                 !- Conductivity {W/m-K}
  91,                                     !- Density {kg/m3}
  836.999999999999,                       !- Specific Heat {J/kg-K}
  0.9,                                    !- Thermal Absorptance
  0.5,                                    !- Solar Absorptance
  0.5;                                    !- Visible Absorptance

OS:Construction,
  {dbd8dba3-54c2-48d4-ad32-84a544fd42ad}, !- Handle
  ASHRAE 189.1-2009 ExtWall Mass ClimateZone 4, !- Name
  ,                                       !- Surface Rendering Name
  {c237d55f-3f2b-43b4-a990-ce67854a6627}, !- Layer 1
  {cb65a7ba-0199-4aff-9b57-8d59cb521106}, !- Layer 2
  {019f573a-14ec-4eda-9718-5ed516f3012c}, !- Layer 3
  {b049967e-8421-4ada-a269-46dcb7cb8efb}; !- Layer 4

OS:StandardsInformation:Construction,
  {f60c15ad-f8ad-4e67-b604-1d8cb2b3cb75}, !- Handle
  {dbd8dba3-54c2-48d4-ad32-84a544fd42ad}, !- Construction Name
  ExteriorWall,                           !- Intended Surface Type
  ASHRAE 189.1-2009;                      !- Standards Construction Type

OS:Material,
  {019f573a-14ec-4eda-9718-5ed516f3012c}, !- Handle
  Wall Insulation [37],                   !- Name
  MediumRough,                            !- Roughness
  0.0680999999999999,                     !- Thickness {m}
  0.0432,                                 !- Conductivity {W/m-K}
  91,                                     !- Density {kg/m3}
  836.999999999999,                       !- Specific Heat {J/kg-K}
  0.9,                                    !- Thermal Absorptance
  0.5,                                    !- Solar Absorptance
  0.5;                                    !- Visible Absorptance

OS:Construction,
  {c12a1228-b2b8-45e6-8c98-3ba0184da002}, !- Handle
  ASHRAE 189.1-2009 ExtWall Mass ClimateZone 5, !- Name
  ,                                       !- Surface Rendering Name
  {c237d55f-3f2b-43b4-a990-ce67854a6627}, !- Layer 1
  {cb65a7ba-0199-4aff-9b57-8d59cb521106}, !- Layer 2
  {1443b136-f300-4caf-8c21-52d6cf366b64}, !- Layer 3
  {b049967e-8421-4ada-a269-46dcb7cb8efb}; !- Layer 4

OS:StandardsInformation:Construction,
  {272e18e8-f91a-4e10-91f6-f261000ef406}, !- Handle
  {c12a1228-b2b8-45e6-8c98-3ba0184da002}, !- Construction Name
  ExteriorWall,                           !- Intended Surface Type
  ASHRAE 189.1-2009;                      !- Standards Construction Type

OS:Material,
  {1443b136-f300-4caf-8c21-52d6cf366b64}, !- Handle
  Wall Insulation [40],                   !- Name
  MediumRough,                            !- Roughness
  0.0793999999999999,                     !- Thickness {m}
  0.0432,                                 !- Conductivity {W/m-K}
  91,                                     !- Density {kg/m3}
  836.999999999999,                       !- Specific Heat {J/kg-K}
  0.9,                                    !- Thermal Absorptance
  0.5,                                    !- Solar Absorptance
  0.5;                                    !- Visible Absorptance

OS:Construction,
  {d1be6be2-c0e9-45d0-9328-612cc14d79f5}, !- Handle
  ASHRAE 189.1-2009 ExtWall Mass ClimateZone 6, !- Name
  ,                                       !- Surface Rendering Name
  {c237d55f-3f2b-43b4-a990-ce67854a6627}, !- Layer 1
  {cb65a7ba-0199-4aff-9b57-8d59cb521106}, !- Layer 2
  {07f7f469-5d3a-444f-91cf-8d52fdac7f3f}, !- Layer 3
  {b049967e-8421-4ada-a269-46dcb7cb8efb}; !- Layer 4

OS:StandardsInformation:Construction,
  {fba1ae2a-2b5e-4034-b828-9118ee9cc4fd}, !- Handle
  {d1be6be2-c0e9-45d0-9328-612cc14d79f5}, !- Construction Name
  ExteriorWall,                           !- Intended Surface Type
  ASHRAE 189.1-2009;                      !- Standards Construction Type

OS:Material,
  {07f7f469-5d3a-444f-91cf-8d52fdac7f3f}, !- Handle
  Wall Insulation [42],                   !- Name
  MediumRough,                            !- Roughness
  0.0913999999999999,                     !- Thickness {m}
  0.0432,                                 !- Conductivity {W/m-K}
  91,                                     !- Density {kg/m3}
  836.999999999999,                       !- Specific Heat {J/kg-K}
  0.9,                                    !- Thermal Absorptance
  0.5,                                    !- Solar Absorptance
  0.5;                                    !- Visible Absorptance

OS:Construction,
  {da885620-2692-4317-8e4d-09054ce11d98}, !- Handle
  ASHRAE 189.1-2009 ExtWall Mass ClimateZone 7-8, !- Name
  ,                                       !- Surface Rendering Name
  {c237d55f-3f2b-43b4-a990-ce67854a6627}, !- Layer 1
  {cb65a7ba-0199-4aff-9b57-8d59cb521106}, !- Layer 2
  {be635c44-6651-4468-b661-42e2d8a5b519}, !- Layer 3
  {b049967e-8421-4ada-a269-46dcb7cb8efb}; !- Layer 4

OS:StandardsInformation:Construction,
  {ffa86ee0-d5ca-4b7e-b4d4-ff65a7c5649f}, !- Handle
  {da885620-2692-4317-8e4d-09054ce11d98}, !- Construction Name
  ExteriorWall,                           !- Intended Surface Type
  ASHRAE 189.1-2009;                      !- Standards Construction Type

OS:Material,
  {be635c44-6651-4468-b661-42e2d8a5b519}, !- Handle
  Wall Insulation [44],                   !- Name
  MediumRough,                            !- Roughness
  0.1104,                                 !- Thickness {m}
  0.0432,                                 !- Conductivity {W/m-K}
  91,                                     !- Density {kg/m3}
  836.999999999999,                       !- Specific Heat {J/kg-K}
  0.9,                                    !- Thermal Absorptance
  0.5,                                    !- Solar Absorptance
  0.5;                                    !- Visible Absorptance

OS:Construction,
  {096fe8eb-0838-4991-97a3-931d30170259}, !- Handle
  ASHRAE 189.1-2009 ExtWall Mass ClimateZone alt-res 1, !- Name
  ,                                       !- Surface Rendering Name
  {c237d55f-3f2b-43b4-a990-ce67854a6627}, !- Layer 1
  {cb65a7ba-0199-4aff-9b57-8d59cb521106}, !- Layer 2
  {be43e698-1ddf-4d5d-a3e6-81fd5740b65f}, !- Layer 3
  {b049967e-8421-4ada-a269-46dcb7cb8efb}; !- Layer 4

OS:StandardsInformation:Construction,
  {def9da57-6e4d-43a3-a633-9dffcedd910e}, !- Handle
  {096fe8eb-0838-4991-97a3-931d30170259}, !- Construction Name
  ExteriorWall,                           !- Intended Surface Type
  ASHRAE 189.1-2009;                      !- Standards Construction Type

OS:Construction,
  {400c16cd-b0d4-48e7-928a-20630346002c}, !- Handle
  ASHRAE 189.1-2009 ExtWall Mass ClimateZone alt-res 2, !- Name
  ,                                       !- Surface Rendering Name
  {c237d55f-3f2b-43b4-a990-ce67854a6627}, !- Layer 1
  {cb65a7ba-0199-4aff-9b57-8d59cb521106}, !- Layer 2
  {bf7a37a7-b207-48c2-a1a5-43bc27be24db}, !- Layer 3
  {b049967e-8421-4ada-a269-46dcb7cb8efb}; !- Layer 4

OS:StandardsInformation:Construction,
  {4dde3012-5ad5-44a4-a7e3-eb2479c32c73}, !- Handle
  {400c16cd-b0d4-48e7-928a-20630346002c}, !- Construction Name
  ExteriorWall,                           !- Intended Surface Type
  ASHRAE 189.1-2009;                      !- Standards Construction Type

OS:Construction,
  {af8e3444-a17d-4b5f-8d48-3c904a4c774d}, !- Handle
  ASHRAE 189.1-2009 ExtWall Mass ClimateZone alt-res 3, !- Name
  ,                                       !- Surface Rendering Name
  {c237d55f-3f2b-43b4-a990-ce67854a6627}, !- Layer 1
  {cb65a7ba-0199-4aff-9b57-8d59cb521106}, !- Layer 2
  {019f573a-14ec-4eda-9718-5ed516f3012c}, !- Layer 3
  {b049967e-8421-4ada-a269-46dcb7cb8efb}; !- Layer 4

OS:StandardsInformation:Construction,
  {d9ca42bd-dc72-4986-8a78-8b6a7741a908}, !- Handle
  {af8e3444-a17d-4b5f-8d48-3c904a4c774d}, !- Construction Name
  ExteriorWall,                           !- Intended Surface Type
  ASHRAE 189.1-2009;                      !- Standards Construction Type

OS:Construction,
  {7aaa134e-9b06-45fb-a13d-8b078413fddb}, !- Handle
  ASHRAE 189.1-2009 ExtWall Mass ClimateZone alt-res 4, !- Name
  ,                                       !- Surface Rendering Name
  {c237d55f-3f2b-43b4-a990-ce67854a6627}, !- Layer 1
  {cb65a7ba-0199-4aff-9b57-8d59cb521106}, !- Layer 2
  {1443b136-f300-4caf-8c21-52d6cf366b64}, !- Layer 3
  {b049967e-8421-4ada-a269-46dcb7cb8efb}; !- Layer 4

OS:StandardsInformation:Construction,
  {356c65e1-2681-49e2-9d96-6999be1ac04f}, !- Handle
  {7aaa134e-9b06-45fb-a13d-8b078413fddb}, !- Construction Name
  ExteriorWall,                           !- Intended Surface Type
  ASHRAE 189.1-2009;                      !- Standards Construction Type

OS:Construction,
  {f59b65e7-88f0-4682-81ec-d4e226a73e72}, !- Handle
  ASHRAE 189.1-2009 ExtWall Mass ClimateZone alt-res 5, !- Name
  ,                                       !- Surface Rendering Name
  {c237d55f-3f2b-43b4-a990-ce67854a6627}, !- Layer 1
  {cb65a7ba-0199-4aff-9b57-8d59cb521106}, !- Layer 2
  {07f7f469-5d3a-444f-91cf-8d52fdac7f3f}, !- Layer 3
  {b049967e-8421-4ada-a269-46dcb7cb8efb}; !- Layer 4

OS:StandardsInformation:Construction,
  {bee3e92f-8987-4430-9988-8c6812f0652c}, !- Handle
  {f59b65e7-88f0-4682-81ec-d4e226a73e72}, !- Construction Name
  ExteriorWall,                           !- Intended Surface Type
  ASHRAE 189.1-2009;                      !- Standards Construction Type

OS:Construction,
  {91f7a00e-0b5a-43b2-bec2-1ef93c8277d2}, !- Handle
  ASHRAE 189.1-2009 ExtWall Mass ClimateZone alt-res 6, !- Name
  ,                                       !- Surface Rendering Name
  {c237d55f-3f2b-43b4-a990-ce67854a6627}, !- Layer 1
  {cb65a7ba-0199-4aff-9b57-8d59cb521106}, !- Layer 2
  {be635c44-6651-4468-b661-42e2d8a5b519}, !- Layer 3
  {b049967e-8421-4ada-a269-46dcb7cb8efb}; !- Layer 4

OS:StandardsInformation:Construction,
  {6646b821-536f-4662-9e3e-c27e5c7cac2f}, !- Handle
  {91f7a00e-0b5a-43b2-bec2-1ef93c8277d2}, !- Construction Name
  ExteriorWall,                           !- Intended Surface Type
  ASHRAE 189.1-2009;                      !- Standards Construction Type

OS:Construction,
  {e695293a-2feb-4e43-b763-8d1c85c9aadc}, !- Handle
  ASHRAE 189.1-2009 ExtWall Mass ClimateZone alt-res 7, !- Name
  ,                                       !- Surface Rendering Name
  {c237d55f-3f2b-43b4-a990-ce67854a6627}, !- Layer 1
  {cb65a7ba-0199-4aff-9b57-8d59cb521106}, !- Layer 2
  {be635c44-6651-4468-b661-42e2d8a5b519}, !- Layer 3
  {b049967e-8421-4ada-a269-46dcb7cb8efb}; !- Layer 4

OS:StandardsInformation:Construction,
  {3d72598f-5fa6-4a94-ae97-ce1d4a743e54}, !- Handle
  {e695293a-2feb-4e43-b763-8d1c85c9aadc}, !- Construction Name
  ExteriorWall,                           !- Intended Surface Type
  ASHRAE 189.1-2009;                      !- Standards Construction Type

OS:Construction,
  {73d13804-1c5d-403d-bbd4-1dd53b198c84}, !- Handle
  ASHRAE 189.1-2009 ExtWall Mass ClimateZone alt-res 8, !- Name