
OS:Version,
  {acc37d49-b66e-4d5a-89e7-df84111b4c06}, !- Handle
  1.3.3;                                  !- Version Identifier

OS:Construction,
  {e5e5f0eb-de58-4b74-82e1-9ffe3afe93a4}, !- Handle
  ASHRAE 189.1-2009 AtticFloor ClimateZone 1-8, !- Name
  ,                                       !- Surface Rendering Name
  {4d192981-ec84-49a4-afe7-c930b72361e1}, !- Layer 1
  {255c902b-8b9d-4d7b-b4c1-ccfcfa36bcb4}, !- Layer 2
  {4d192981-ec84-49a4-afe7-c930b72361e1}; !- Layer 3

OS:StandardsInformation:Construction,
  {27d14c0f-fff4-4f84-9d85-fbaa3c13af98}, !- Handle
  {e5e5f0eb-de58-4b74-82e1-9ffe3afe93a4}, !- Construction Name
  AtticFloor,                             !- Intended Surface Type
  WoodFramed;                             !- Standards Construction Type

OS:Material,
  {4d192981-ec84-49a4-afe7-c930b72361e1}, !- Handle
  1/2IN Gypsum,                           !- Name
  Smooth,                                 !- Roughness
  0.0127,                                 !- Thickness {m}
  0.16,                                   !- Conductivity {W/m-K}
  784.9,                                  !- Density {kg/m3}
  830.000000000001,                       !- Specific Heat {J/kg-K}
  0.9,                                    !- Thermal Absorptance
  0.4,                                    !- Solar Absorptance
  0.4;                                    !- Visible Absorptance

OS:Material,
  {255c902b-8b9d-4d7b-b4c1-ccfcfa36bcb4}, !- Handle
  AtticFloor Insulation,                  !- Name
  MediumRough,                            !- Roughness
  0.2379,                                 !- Thickness {m}
  0.049,                                  !- Conductivity {W/m-K}
  265,                                    !- Density {kg/m3}
  836.800000000001,                       !- Specific Heat {J/kg-K}
  0.9,                                    !- Thermal Absorptance
  0.7,                                    !- Solar Absorptance
  0.7;                                    !- Visible Absorptance

OS:Construction,
  {64e3628b-ea38-4d10-92d1-bb444a62a15c}, !- Handle
  ASHRAE 189.1-2009 ExtRoof IEAD ClimateZone 1, !- Name
  ,                                       !- Surface Rendering Name
  {4fac4ad2-1b27-4030-9912-b1e4b448d65a}, !- Layer 1
  {fd1e4f31-aacb-459e-a5c4-6e8519eb70af}, !- Layer 2
  {fa1eb4bd-8523-46fd-b265-7744dced7287}; !- Layer 3

OS:StandardsInformation:Construction,
  {edbdd65d-458d-48e9-913e-2c023dbd1112}, !- Handle
  {64e3628b-ea38-4d10-92d1-bb444a62a15c}, !- Construction Name
  ExteriorRoof,                           !- Intended Surface Type
  IEAD;                                   !- Standards Construction Type

OS:Material,
  {4fac4ad2-1b27-4030-9912-b1e4b448d65a}, !- Handle
  Roof Membrane,                          !- Name
  VeryRough,                              !- Roughness
  0.0095,                                 !- Thickness {m}
  0.16,                                   !- Conductivity {W/m-K}
  1121.29,                                !- Density {kg/m3}
  1460,                                   !- Specific Heat {J/kg-K}
  0.9,                                    !- Thermal Absorptance
  0.7,                                    !- Solar Absorptance
  0.7;                                    !- Visible Absorptance

OS:Material,
  {fd1e4f31-aacb-459e-a5c4-6e8519eb70af}, !- Handle
  Roof Insulation [18],                   !- Name
  MediumRough,                            !- Roughness
  0.1693,                                 !- Thickness {m}
  0.049,                                  !- Conductivity {W/m-K}
  265,                                    !- Density {kg/m3}
  836.800000000001,                       !- Specific Heat {J/kg-K}
  0.9,                                    !- Thermal Absorptance
  0.7,                                    !- Solar Absorptance
  0.7;                                    !- Visible Absorptance

OS:Material,
  {fa1eb4bd-8523-46fd-b265-7744dced7287}, !- Handle
  Metal Decking,                          !- Name
  MediumSmooth,                           !- Roughness
  0.0015,                                 !- Thickness {m}
  45.006,                                 !- Conductivity {W/m-K}
  7680,                                   !- Density {kg/m3}
  418.4,                                  !- Specific Heat {J/kg-K}
  0.9,                                    !- Thermal Absorptance
  0.6,                                    !- Solar Absorptance
  0.6;                                    !- Visible Absorptance

OS:Construction,
  {116a4bdd-716e-458f-b2ec-d653a4e7ab8e}, !- Handle
  ASHRAE 189.1-2009 ExtRoof IEAD ClimateZone 2-5, !- Name
  ,                                       !- Surface Rendering Name
  {4fac4ad2-1b27-4030-9912-b1e4b448d65a}, !- Layer 1
  {931f6074-cff7-4918-82cc-3135e90ab594}, !- Layer 2
  {fa1eb4bd-8523-46fd-b265-7744dced7287}; !- Layer 3

OS:StandardsInformation:Construction,
  {a436a950-1238-4b9d-b77c-58bc6ed32304}, !- Handle
  {116a4bdd-716e-458f-b2ec-d653a4e7ab8e}, !- Construction Name
  ExteriorRoof,                           !- Intended Surface Type
  IEAD;                                   !- Standards Construction Type

OS:Material,
  {931f6074-cff7-4918-82cc-3135e90ab594}, !- Handle
  Roof Insulation [21],                   !- Name
  MediumRough,                            !- Roughness
  0.2105,                                 !- Thickness {m}
  0.049,                                  !- Conductivity {W/m-K}
  265,                                    !- Density {kg/m3}
  836.800000000001,                       !- Specific Heat {J/kg-K}
  0.9,                                    !- Thermal Absorptance
  0.7,                                    !- Solar Absorptance
  0.7;                                    !- Visible Absorptance

OS:Construction,
  {24f796e6-8739-47da-9314-75d5f7e42bcd}, !- Handle
  ASHRAE 189.1-2009 ExtRoof IEAD ClimateZone 6, !- Name
  ,                                       !- Surface Rendering Name
  {4fac4ad2-1b27-4030-9912-b1e4b448d65a}, !- Layer 1
  {83446d2e-d5ca-4c52-999d-19a9faf10b45}, !- Layer 2
  {fa1eb4bd-8523-46fd-b265-7744dced7287}; !- Layer 3

OS:StandardsInformation:Construction,
  {e2d6766a-c42e-4a77-af72-1be74f5774c4}, !- Handle
  {24f796e6-8739-47da-9314-75d5f7e42bcd}, !- Construction Name
  ExteriorRoof,                           !- Intended Surface Type
  IEAD;                                   !- Standards Construction Type

OS:Material,
  {83446d2e-d5ca-4c52-999d-19a9faf10b45}, !- Handle
  Roof Insulation [24],                   !- Name
  MediumRough,                            !- Roughness
  0.260100000000001,                      !- Thickness {m}
  0.049,                                  !- Conductivity {W/m-K}
  265,                                    !- Density {kg/m3}
  836.800000000001,                       !- Specific Heat {J/kg-K}
  0.9,                                    !- Thermal Absorptance
  0.7,                                    !- Solar Absorptance
  0.7;                                    !- Visible Absorptance

OS:Construction,
  {a27407e3-8a60-4687-98ca-a64ba1800f40}, !- Handle
  ASHRAE 189.1-2009 ExtRoof IEAD ClimateZone 7-8, !- Name
  ,                                       !- Surface Rendering Name
  {4fac4ad2-1b27-4030-9912-b1e4b448d65a}, !- Layer 1
  {d8acf908-6756-47ae-a34f-cc58ec3c54d9}, !- Layer 2
  {fa1eb4bd-8523-46fd-b265-7744dced7287}; !- Layer 3

OS:StandardsInformation:Construction,
  {ce694327-2141-47e1-a679-d983c271788e}, !- Handle
  {a27407e3-8a60-4687-98ca-a64ba1800f40}, !- Construction Name
  ExteriorRoof,                           !- Intended Surface Type
  IEAD;                                   !- Standards Construction Type

OS:Material,
  {d8acf908-6756-47ae-a34f-cc58ec3c54d9}, !- Handle
  Roof Insulation [26],                   !- Name
  MediumRough,                            !- Roughness
  0.2941,                                 !- Thickness {m}
  0.049,                                  !- Conductivity {W/m-K}
  265,                                    !- Density {kg/m3}
  836.800000000001,                       !- Specific Heat {J/kg-K}
  0.9,                                    !- Thermal Absorptance
  0.7,                                    !- Solar Absorptance
  0.7;                                    !- Visible Absorptance

OS:Construction,
  {d0861668-51dc-448f-94bc-8abcaad92ebb}, !- Handle
  ASHRAE 189.1-2009 ExtRoof Metal ClimateZone 1, !- Name
  ,                                       !- Surface Rendering Name
  {5c0090d9-91f0-4894-86ba-868b4e6d6c8f}, !- Layer 1
  {e42a83ec-a02e-40da-a5e4-7bf578a9fb09}, !- Layer 2
  {fa1eb4bd-8523-46fd-b265-7744dced7287}; !- Layer 3

OS:StandardsInformation:Construction,
  {9ca26fb0-47fa-4661-82bf-c2ce65965cdb}, !- Handle
  {d0861668-51dc-448f-94bc-8abcaad92ebb}, !- Construction Name
  ExteriorRoof,                           !- Intended Surface Type
  Metal;                                  !- Standards Construction Type

OS:Material,
  {5c0090d9-91f0-4894-86ba-868b4e6d6c8f}, !- Handle
  Metal Roofing,                          !- Name
  MediumSmooth,                           !- Roughness
  0.0015,                                 !- Thickness {m}
  45.006,                                 !- Conductivity {W/m-K}
  7680,                                   !- Density {kg/m3}
  418.4,                                  !- Specific Heat {J/kg-K}
  0.9,                                    !- Thermal Absorptance
  0.6,                                    !- Solar Absorptance
  0.6;                                    !- Visible Absorptance

OS:Material,
  {e42a83ec-a02e-40da-a5e4-7bf578a9fb09}, !- Handle
  Roof Insulation [19],                   !- Name
  MediumRough,                            !- Roughness
  0.1868,                                 !- Thickness {m}
  0.049,                                  !- Conductivity {W/m-K}
  265,                                    !- Density {kg/m3}
  836.800000000001,                       !- Specific Heat {J/kg-K}
  0.9,                                    !- Thermal Absorptance
  0.7,                                    !- Solar Absorptance
  0.7;                                    !- Visible Absorptance

OS:Construction,
  {ef65f618-7429-44a6-ae68-92bb2e0bf6ac}, !- Handle
  ASHRAE 189.1-2009 ExtRoof Metal ClimateZone 2-5, !- Name
  ,                                       !- Surface Rendering Name
  {5c0090d9-91f0-4894-86ba-868b4e6d6c8f}, !- Layer 1
  {98d27d6c-573d-47fa-bb65-54345b1c53ae}, !- Layer 2
  {fa1eb4bd-8523-46fd-b265-7744dced7287}; !- Layer 3

OS:StandardsInformation:Construction,
  {72e470bf-9d79-4afd-a15d-3564ce5e526a}, !- Handle
  {ef65f618-7429-44a6-ae68-92bb2e0bf6ac}, !- Construction Name
  ExteriorRoof,                           !- Intended Surface Type
  Metal;                                  !- Standards Construction Type

OS:Material,
  {98d27d6c-573d-47fa-bb65-54345b1c53ae}, !- Handle
  Roof Insulation [22],                   !- Name
  MediumRough,                            !- Roughness
  0.2358,                                 !- Thickness {m}
  0.049,                                  !- Conductivity {W/m-K}
  265,                                    !- Density {kg/m3}
  836.800000000001,                       !- Specific Heat {J/kg-K}
  0.9,                                    !- Thermal Absorptance
  0.7,                                    !- Solar Absorptance
  0.7;                                    !- Visible Absorptance

OS:Construction,
  {d0f5dd68-6d2f-4b08-b6ab-b443cf67fbfc}, !- Handle
  ASHRAE 189.1-2009 ExtRoof Metal ClimateZone 6, !- Name
  ,                                       !- Surface Rendering Name
  {5c0090d9-91f0-4894-86ba-868b4e6d6c8f}, !- Layer 1
  {ed964e14-f62b-4558-8c99-e90e1c42224a}, !- Layer 2
  {fa1eb4bd-8523-46fd-b265-7744dced7287}; !- Layer 3

OS:StandardsInformation:Construction,
  {691f53cc-f9b5-4c7e-ad63-677b90e0fa78}, !- Handle
  {d0f5dd68-6d2f-4b08-b6ab-b443cf67fbfc}, !- Construction Name
  ExteriorRoof,                           !- Intended Surface Type
  Metal;                                  !- Standards Construction Type

OS:Material,
  {ed964e14-f62b-4558-8c99-e90e1c42224a}, !- Handle
  Roof Insulation [25],                   !- Name
  MediumRough,                            !- Roughness
  0.263,                                  !- Thickness {m}
  0.049,                                  !- Conductivity {W/m-K}
  265,                                    !- Density {kg/m3}
  836.800000000001,                       !- Specific Heat {J/kg-K}
  0.9,                                    !- Thermal Absorptance
  0.7,                                    !- Solar Absorptance
  0.7;                                    !- Visible Absorptance

OS:Construction,
  {8cd7bee4-a6e0-4855-aedf-a929646e3663}, !- Handle
  ASHRAE 189.1-2009 ExtRoof Metal ClimateZone 7-8, !- Name
  ,                                       !- Surface Rendering Name
  {5c0090d9-91f0-4894-86ba-868b4e6d6c8f}, !- Layer 1
  {509e1e1d-42c0-48b3-ab95-57fb19072f27}, !- Layer 2
  {fa1eb4bd-8523-46fd-b265-7744dced7287}; !- Layer 3

OS:StandardsInformation:Construction,
  {53731085-b8b1-4fdb-9530-ff8405fa6284}, !- Handle
  {8cd7bee4-a6e0-4855-aedf-a929646e3663}, !- Construction Name
  ExteriorRoof,                           !- Intended Surface Type
  Metal;                                  !- Standards Construction Type

OS:Material,
  {509e1e1d-42c0-48b3-ab95-57fb19072f27}, !- Handle
  Roof Insulation [27],                   !- Name
  MediumRough,                            !- Roughness
  0.297000000000001,                      !- Thickness {m}
  0.049,                                  !- Conductivity {W/m-K}
  265,                                    !- Density {kg/m3}
  836.800000000001,                       !- Specific Heat {J/kg-K}
  0.9,                                    !- Thermal Absorptance
  0.7,                                    !- Solar Absorptance
  0.7;                                    !- Visible Absorptance

OS:Construction,
  {3f9e6b3c-f0d9-4545-baad-5dcbd87f621c}, !- Handle
  ASHRAE 189.1-2009 ExtWall Mass ClimateZone 1, !- Name
  ,                                       !- Surface Rendering Name
  {771f2208-3fbf-4875-8b02-a0021f32dbfb}, !- Layer 1
  {f5e25d41-4afb-4b11-b02f-f2a1f9e623e4}, !- Layer 2
  {af647faa-6ff9-4268-a720-2470255d0201}, !- Layer 3
  {4d192981-ec84-49a4-afe7-c930b72361e1}; !- Layer 4

OS:StandardsInformation:Construction,
  {b9161a80-c476-472a-a258-cabfbbe55d37}, !- Handle
  {3f9e6b3c-f0d9-4545-baad-5dcbd87f621c}, !- Construction Name
  ExteriorWall,                           !- Intended Surface Type
  Mass;                                   !- Standards Construction Type

OS:Material,
  {771f2208-3fbf-4875-8b02-a0021f32dbfb}, !- Handle
  1IN Stucco,                             !- Name
  Smooth,                                 !- Roughness
  0.0253,                                 !- Thickness {m}
  0.691799999999999,                      !- Conductivity {W/m-K}
  1858,                                   !- Density {kg/m3}
  836.999999999999,                       !- Specific Heat {J/kg-K}
  0.9,                                    !- Thermal Absorptance
  0.92,                                   !- Solar Absorptance
  0.92;                                   !- Visible Absorptance

OS:Material,
  {f5e25d41-4afb-4b11-b02f-f2a1f9e623e4}, !- Handle
  8IN Concrete HW,                        !- Name
  MediumRough,                            !- Roughness
  0.2033,                                 !- Thickness {m}
  1.72959999999999,                       !- Conductivity {W/m-K}
  2242.99999999999,                       !- Density {kg/m3}
  836.999999999999,                       !- Specific Heat {J/kg-K}
  0.9,                                    !- Thermal Absorptance
  0.65,                                   !- Solar Absorptance
  0.65;                                   !- Visible Absorptance

OS:Material,
  {af647faa-6ff9-4268-a720-2470255d0201}, !- Handle
  Wall Insulation [31],                   !- Name
  MediumRough,                            !- Roughness
  0.0337000000000001,                     !- Thickness {m}
  0.0432,                                 !- Conductivity {W/m-K}
  91,                                     !- Density {kg/m3}
  836.999999999999,                       !- Specific Heat {J/kg-K}
  0.9,                                    !- Thermal Absorptance
  0.5,                                    !- Solar Absorptance
  0.5;                                    !- Visible Absorptance

OS:Construction,
  {d65f1091-27aa-4651-96e0-2f01577b9b02}, !- Handle
  ASHRAE 189.1-2009 ExtWall Mass ClimateZone 2, !- Name
  ,                                       !- Surface Rendering Name
  {771f2208-3fbf-4875-8b02-a0021f32dbfb}, !- Layer 1
  {f5e25d41-4afb-4b11-b02f-f2a1f9e623e4}, !- Layer 2
  {67c8adb2-ae47-4a24-a304-c1ee123adc7f}, !- Layer 3
  {4d192981-ec84-49a4-afe7-c930b72361e1}; !- Layer 4

OS:StandardsInformation:Construction,
  {9a832870-cadb-4ef4-bbfc-74a5b1813398}, !- Handle
  {d65f1091-27aa-4651-96e0-2f01577b9b02}, !- Construction Name
  ExteriorWall,                           !- Intended Surface Type
  Mass;                                   !- Standards Construction Type

OS:Material,
  {67c8adb2-ae47-4a24-a304-c1ee123adc7f}, !- Handle
  Wall Insulation [35],                   !- Name
  MediumRough,                            !- Roughness
  0.0452,                                 !- Thickness {m}
  0.0432,                                 !- Conductivity {W/m-K}
  91,                                     !- Density {kg/m3}
  836.999999999999,                       !- Specific Heat {J/kg-K}
  0.9,                                    !- Thermal Absorptance
  0.5,                                    !- Solar Absorptance
  0.5;                                    !- Visible Absorptance

OS:Construction,
  {5813b612-f77d-49ac-a653-48913b0b9d4d}, !- Handle
  ASHRAE 189.1-2009 ExtWall Mass ClimateZone 3, !- Name
  ,                                       !- Surface Rendering Name
  {771f2208-3fbf-4875-8b02-a0021f32dbfb}, !- Layer 1
  {f5e25d41-4afb-4b11-b02f-f2a1f9e623e4}, !- Layer 2
  {13028262-cd4e-4c88-aeb3-22877a199f3c}, !- Layer 3
  {4d192981-ec84-49a4-afe7-c930b72361e1}; !- Layer 4

OS:StandardsInformation:Construction,
  {29286c6d-1511-4348-86e3-b454bfcfc9cc}, !- Handle
  {5813b612-f77d-49ac-a653-48913b0b9d4d}, !- Construction Name
  ExteriorWall,                           !- Intended Surface Type
  Mass;                                   !- Standards Construction Type

OS:Material,
  {13028262-cd4e-4c88-aeb3-22877a199f3c}, !- Handle
  Wall Insulation [36],                   !- Name
  MediumRough,                            !- Roughness
  0.0565999999999999,                     !- Thickness {m}
  0.0432,                                 !- Conductivity {W/m-K}
  91,                                     !- Density {kg/m3}
  836.999999999999,                       !- Specific Heat {J/kg-K}
  0.9,                                    !- Thermal Absorptance
  0.5,                                    !- Solar Absorptance
  0.5;                                    !- Visible Absorptance

OS:Construction,
  {f69e95a6-7086-4f6b-9ebf-b63b19bff222}, !- Handle
  ASHRAE 189.1-2009 ExtWall Mass ClimateZone 4, !- Name
  ,                                       !- Surface Rendering Name
  {771f2208-3fbf-4875-8b02-a0021f32dbfb}, !- Layer 1
  {f5e25d41-4afb-4b11-b02f-f2a1f9e623e4}, !- Layer 2
  {1f28ebcf-8d2c-46f1-9a0d-ccff9864e87a}, !- Layer 3
  {4d192981-ec84-49a4-afe7-c930b72361e1}; !- Layer 4

OS:StandardsInformation:Construction,
  {454befc7-5ffc-4fc2-b074-03ec663c6184}, !- Handle
  {f69e95a6-7086-4f6b-9ebf-b63b19bff222}, !- Construction Name
  ExteriorWall,                           !- Intended Surface Type
  Mass;                                   !- Standards Construction Type

OS:Material,
  {1f28ebcf-8d2c-46f1-9a0d-ccff9864e87a}, !- Handle
  Wall Insulation [37],                   !- Name
  MediumRough,                            !- Roughness
  0.0680999999999999,                     !- Thickness {m}
  0.0432,                                 !- Conductivity {W/m-K}
  91,                                     !- Density {kg/m3}
  836.999999999999,                       !- Specific Heat {J/kg-K}
  0.9,                                    !- Thermal Absorptance
  0.5,                                    !- Solar Absorptance
  0.5;                                    !- Visible Absorptance

OS:Construction,
  {7787e08e-9c28-434e-81cd-08468fca358b}, !- Handle
  ASHRAE 189.1-2009 ExtWall Mass ClimateZone 5, !- Name
  ,                                       !- Surface Rendering Name
  {771f2208-3fbf-4875-8b02-a0021f32dbfb}, !- Layer 1
  {f5e25d41-4afb-4b11-b02f-f2a1f9e623e4}, !- Layer 2
  {7e9192fa-1d44-41d3-a213-d85a5beeb88c}, !- Layer 3
  {4d192981-ec84-49a4-afe7-c930b72361e1}; !- Layer 4

OS:StandardsInformation:Construction,
  {0d634c4f-1997-431a-90b7-815bf6996d27}, !- Handle
  {7787e08e-9c28-434e-81cd-08468fca358b}, !- Construction Name
  ExteriorWall,                           !- Intended Surface Type
  Mass;                                   !- Standards Construction Type

OS:Material,
  {7e9192fa-1d44-41d3-a213-d85a5beeb88c}, !- Handle
  Wall Insulation [40],                   !- Name
  MediumRough,                            !- Roughness
  0.0793999999999999,                     !- Thickness {m}
  0.0432,                                 !- Conductivity {W/m-K}
  91,                                     !- Density {kg/m3}
  836.999999999999,                       !- Specific Heat {J/kg-K}
  0.9,                                    !- Thermal Absorptance
  0.5,                                    !- Solar Absorptance
  0.5;                                    !- Visible Absorptance

OS:Construction,
  {f283b12c-d076-4793-bded-574f5c2cfe69}, !- Handle
  ASHRAE 189.1-2009 ExtWall Mass ClimateZone 6, !- Name
  ,                                       !- Surface Rendering Name
  {771f2208-3fbf-4875-8b02-a0021f32dbfb}, !- Layer 1
  {f5e25d41-4afb-4b11-b02f-f2a1f9e623e4}, !- Layer 2
  {f17fcb44-0567-428e-9949-a97ef5694db1}, !- Layer 3
  {4d192981-ec84-49a4-afe7-c930b72361e1}; !- Layer 4

OS:StandardsInformation:Construction,
  {45e8f434-7c58-421e-88ee-2b3ff23337b1}, !- Handle
  {f283b12c-d076-4793-bded-574f5c2cfe69}, !- Construction Name
  ExteriorWall,                           !- Intended Surface Type
  Mass;                                   !- Standards Construction Type

OS:Material,
  {f17fcb44-0567-428e-9949-a97ef5694db1}, !- Handle
  Wall Insulation [42],                   !- Name
  MediumRough,                            !- Roughness
  0.0913999999999999,                     !- Thickness {m}
  0.0432,                                 !- Conductivity {W/m-K}
  91,                                     !- Density {kg/m3}
  836.999999999999,                       !- Specific Heat {J/kg-K}
  0.9,                                    !- Thermal Absorptance
  0.5,                                    !- Solar Absorptance
  0.5;                                    !- Visible Absorptance

OS:Construction,
  {4a5c91a1-bf14-4c8b-920d-25c0dde3a627}, !- Handle
  ASHRAE 189.1-2009 ExtWall Mass ClimateZone 7-8, !- Name
  ,                                       !- Surface Rendering Name
  {771f2208-3fbf-4875-8b02-a0021f32dbfb}, !- Layer 1
  {f5e25d41-4afb-4b11-b02f-f2a1f9e623e4}, !- Layer 2
  {c01d4c4d-c847-4bd5-bab3-5a320869db3f}, !- Layer 3
  {4d192981-ec84-49a4-afe7-c930b72361e1}; !- Layer 4

OS:StandardsInformation:Construction,
  {e9b23b19-95d9-4b8b-9303-baf0c19a4f22}, !- Handle
  {4a5c91a1-bf14-4c8b-920d-25c0dde3a627}, !- Construction Name
  ExteriorWall,                           !- Intended Surface Type
  Mass;                                   !- Standards Construction Type

OS:Material,
  {c01d4c4d-c847-4bd5-bab3-5a320869db3f}, !- Handle
  Wall Insulation [44],                   !- Name
  MediumRough,                            !- Roughness
  0.1104,                                 !- Thickness {m}
  0.0432,                                 !- Conductivity {W/m-K}
  91,                                     !- Density {kg/m3}
  836.999999999999,                       !- Specific Heat {J/kg-K}
  0.9,                                    !- Thermal Absorptance
  0.5,                                    !- Solar Absorptance
  0.5;                                    !- Visible Absorptance

OS:Construction,
  {2b7ca1e3-29c2-4ada-8659-156684d64b15}, !- Handle
  ASHRAE 189.1-2009 ExtWall Mass ClimateZone alt-res 1, !- Name
  ,                                       !- Surface Rendering Name
  {771f2208-3fbf-4875-8b02-a0021f32dbfb}, !- Layer 1
  {f5e25d41-4afb-4b11-b02f-f2a1f9e623e4}, !- Layer 2
  {67c8adb2-ae47-4a24-a304-c1ee123adc7f}, !- Layer 3
  {4d192981-ec84-49a4-afe7-c930b72361e1}; !- Layer 4

OS:StandardsInformation:Construction,
  {95c83218-5fbf-4459-aac6-a52c54ae0ff5}, !- Handle
  {2b7ca1e3-29c2-4ada-8659-156684d64b15}, !- Construction Name
  ExteriorWall,                           !- Intended Surface Type
  Mass;                                   !- Standards Construction Type

OS:Construction,
  {ddcbdc3a-f15a-4a58-a3c7-9a9cafc8a3c9}, !- Handle
  ASHRAE 189.1-2009 ExtWall Mass ClimateZone alt-res 2, !- Name
  ,                                       !- Surface Rendering Name
  {771f2208-3fbf-4875-8b02-a0021f32dbfb}, !- Layer 1
  {f5e25d41-4afb-4b11-b02f-f2a1f9e623e4}, !- Layer 2
  {13028262-cd4e-4c88-aeb3-22877a199f3c}, !- Layer 3
  {4d192981-ec84-49a4-afe7-c930b72361e1}; !- Layer 4

OS:StandardsInformation:Construction,
  {830e47e8-74ca-4cd0-95f2-653c412984d6}, !- Handle
  {ddcbdc3a-f15a-4a58-a3c7-9a9cafc8a3c9}, !- Construction Name
  ExteriorWall,                           !- Intended Surface Type
  Mass;                                   !- Standards Construction Type

OS:Construction,
  {06aee680-4fa2-406b-9d2c-4a2f4cea0c7a}, !- Handle
  ASHRAE 189.1-2009 ExtWall Mass ClimateZone alt-res 3, !- Name
  ,                                       !- Surface Rendering Name
  {771f2208-3fbf-4875-8b02-a0021f32dbfb}, !- Layer 1
  {f5e25d41-4afb-4b11-b02f-f2a1f9e623e4}, !- Layer 2
  {1f28ebcf-8d2c-46f1-9a0d-ccff9864e87a}, !- Layer 3
  {4d192981-ec84-49a4-afe7-c930b72361e1}; !- Layer 4

OS:StandardsInformation:Construction,
  {cf0a363b-e77d-4986-9a44-fc6c2455ca9e}, !- Handle
  {06aee680-4fa2-406b-9d2c-4a2f4cea0c7a}, !- Construction Name
  ExteriorWall,                           !- Intended Surface Type
  Mass;                                   !- Standards Construction Type

OS:Construction,
  {d30d5dab-c74f-4561-aae9-9e2c7af49c24}, !- Handle
  ASHRAE 189.1-2009 ExtWall Mass ClimateZone alt-res 4, !- Name
  ,                                       !- Surface Rendering Name
  {771f2208-3fbf-4875-8b02-a0021f32dbfb}, !- Layer 1
  {f5e25d41-4afb-4b11-b02f-f2a1f9e623e4}, !- Layer 2
  {7e9192fa-1d44-41d3-a213-d85a5beeb88c}, !- Layer 3
  {4d192981-ec84-49a4-afe7-c930b72361e1}; !- Layer 4

OS:StandardsInformation:Construction,
  {7e3eb9ac-aa10-4b7a-93bb-08faa72fa699}, !- Handle
  {d30d5dab-c74f-4561-aae9-9e2c7af49c24}, !- Construction Name
  ExteriorWall,                           !- Intended Surface Type
  Mass;                                   !- Standards Construction Type

OS:Construction,
  {3a3f9dd0-7cc8-42ff-9705-7d9615063211}, !- Handle
  ASHRAE 189.1-2009 ExtWall Mass ClimateZone alt-res 5, !- Name
  ,                                       !- Surface Rendering Name
  {771f2208-3fbf-4875-8b02-a0021f32dbfb}, !- Layer 1
  {f5e25d41-4afb-4b11-b02f-f2a1f9e623e4}, !- Layer 2
  {f17fcb44-0567-428e-9949-a97ef5694db1}, !- Layer 3
  {4d192981-ec84-49a4-afe7-c930b72361e1}; !- Layer 4

OS:StandardsInformation:Construction,
  {da8cea36-944b-49ce-bb01-31bc95c2a3a1}, !- Handle
  {3a3f9dd0-7cc8-42ff-9705-7d9615063211}, !- Construction Name
  ExteriorWall,                           !- Intended Surface Type
  Mass;                                   !- Standards Construction Type

OS:Construction,
  {34425f8d-0f1c-4821-a5d8-adf895a53120}, !- Handle
  ASHRAE 189.1-2009 ExtWall Mass ClimateZone alt-res 6, !- Name
  ,                                       !- Surface Rendering Name
  {771f2208-3fbf-4875-8b02-a0021f32dbfb}, !- Layer 1
  {f5e25d41-4afb-4b11-b02f-f2a1f9e623e4}, !- Layer 2
  {c01d4c4d-c847-4bd5-bab3-5a320869db3f}, !- Layer 3
  {4d192981-ec84-49a4-afe7-c930b72361e1}; !- Layer 4

OS:StandardsInformation:Construction,
  {5850a872-7b7f-4085-a82c-7915c36a348f}, !- Handle
  {34425f8d-0f1c-4821-a5d8-adf895a53120}, !- Construction Name
  ExteriorWall,                           !- Intended Surface Type
  Mass;                                   !- Standards Construction Type

OS:Construction,
  {0639d1aa-dbe6-488e-a230-714db8cd6d58}, !- Handle
  ASHRAE 189.1-2009 ExtWall Mass ClimateZone alt-res 7, !- Name
  ,                                       !- Surface Rendering Name
  {771f2208-3fbf-4875-8b02-a0021f32dbfb}, !- Layer 1
  {f5e25d41-4afb-4b11-b02f-f2a1f9e623e4}, !- Layer 2
  {c01d4c4d-c847-4bd5-bab3-5a320869db3f}, !- Layer 3
  {4d192981-ec84-49a4-afe7-c930b72361e1}; !- Layer 4

OS:StandardsInformation:Construction,
  {eed68686-d3e3-45cc-a8e4-ba365f964997}, !- Handle
  {0639d1aa-dbe6-488e-a230-714db8cd6d58}, !- Construction Name
  ExteriorWall,                           !- Intended Surface Type