
OS:Version,
  {cc3a5352-ab64-47f8-a43b-85a62613e6b9}, !- Handle
  1.4.0;                                  !- Version Identifier

OS:Construction,
  {9ef96d92-c821-46cc-96df-6697c78b6786}, !- Handle
  ASHRAE 189.1-2009 AtticFloor ClimateZone 1-8, !- Name
  ,                                       !- Surface Rendering Name
  {a04f3bf2-599b-463b-835f-3e6edd6145e8}, !- Layer 1
  {c7855c3a-e8de-4725-b3be-04e6bacdabdd}, !- Layer 2
  {a04f3bf2-599b-463b-835f-3e6edd6145e8}; !- Layer 3

OS:StandardsInformation:Construction,
  {c8d4746e-0612-41fe-b977-2e3c48fc2136}, !- Handle
  {9ef96d92-c821-46cc-96df-6697c78b6786}, !- Construction Name
  AtticFloor,                             !- Intended Surface Type
  WoodFramed;                             !- Standards Construction Type

OS:Material,
  {a04f3bf2-599b-463b-835f-3e6edd6145e8}, !- Handle
  1/2IN Gypsum,                           !- Name
  Smooth,                                 !- Roughness
  0.0127,                                 !- Thickness {m}
  0.16,                                   !- Conductivity {W/m-K}
  784.9,                                  !- Density {kg/m3}
  830.000000000001,                       !- Specific Heat {J/kg-K}
  0.9,                                    !- Thermal Absorptance
  0.4,                                    !- Solar Absorptance
  0.4;                                    !- Visible Absorptance

OS:Material,
  {c7855c3a-e8de-4725-b3be-04e6bacdabdd}, !- Handle
  AtticFloor Insulation,                  !- Name
  MediumRough,                            !- Roughness
  0.2379,                                 !- Thickness {m}
  0.049,                                  !- Conductivity {W/m-K}
  265,                                    !- Density {kg/m3}
  836.800000000001,                       !- Specific Heat {J/kg-K}
  0.9,                                    !- Thermal Absorptance
  0.7,                                    !- Solar Absorptance
  0.7;                                    !- Visible Absorptance

OS:Construction,
  {1517c082-aa4a-4f63-b134-86394930332b}, !- Handle
  ASHRAE 189.1-2009 ExtRoof IEAD ClimateZone 1, !- Name
  ,                                       !- Surface Rendering Name
  {505422ac-0f3a-4e5f-813f-515aff9b8640}, !- Layer 1
  {4acaf0be-29ff-4385-916f-c2334df4776d}, !- Layer 2
  {0ea7d49b-6031-47d5-8c8b-173c1205bbbf}; !- Layer 3

OS:StandardsInformation:Construction,
  {50e074a2-cd9f-48ed-a98d-567f0b8e67d7}, !- Handle
  {1517c082-aa4a-4f63-b134-86394930332b}, !- Construction Name
  ExteriorRoof,                           !- Intended Surface Type
  IEAD;                                   !- Standards Construction Type

OS:Material,
  {505422ac-0f3a-4e5f-813f-515aff9b8640}, !- Handle
  Roof Membrane,                          !- Name
  VeryRough,                              !- Roughness
  0.0095,                                 !- Thickness {m}
  0.16,                                   !- Conductivity {W/m-K}
  1121.29,                                !- Density {kg/m3}
  1460,                                   !- Specific Heat {J/kg-K}
  0.9,                                    !- Thermal Absorptance
  0.7,                                    !- Solar Absorptance
  0.7;                                    !- Visible Absorptance

OS:Material,
  {4acaf0be-29ff-4385-916f-c2334df4776d}, !- Handle
  Roof Insulation [18],                   !- Name
  MediumRough,                            !- Roughness
  0.1693,                                 !- Thickness {m}
  0.049,                                  !- Conductivity {W/m-K}
  265,                                    !- Density {kg/m3}
  836.800000000001,                       !- Specific Heat {J/kg-K}
  0.9,                                    !- Thermal Absorptance
  0.7,                                    !- Solar Absorptance
  0.7;                                    !- Visible Absorptance

OS:Material,
  {0ea7d49b-6031-47d5-8c8b-173c1205bbbf}, !- Handle
  Metal Decking,                          !- Name
  MediumSmooth,                           !- Roughness
  0.0015,                                 !- Thickness {m}
  45.006,                                 !- Conductivity {W/m-K}
  7680,                                   !- Density {kg/m3}
  418.4,                                  !- Specific Heat {J/kg-K}
  0.9,                                    !- Thermal Absorptance
  0.6,                                    !- Solar Absorptance
  0.6;                                    !- Visible Absorptance

OS:Construction,
  {9f7862bd-0566-45d6-91c3-ff9c0fc77779}, !- Handle
  ASHRAE 189.1-2009 ExtRoof IEAD ClimateZone 2-5, !- Name
  ,                                       !- Surface Rendering Name
  {505422ac-0f3a-4e5f-813f-515aff9b8640}, !- Layer 1
  {f0d68e1d-0d43-49d8-82de-3dcc92a1e5fb}, !- Layer 2
  {0ea7d49b-6031-47d5-8c8b-173c1205bbbf}; !- Layer 3

OS:StandardsInformation:Construction,
  {6ad30b68-1cee-412e-a615-470829c9a19f}, !- Handle
  {9f7862bd-0566-45d6-91c3-ff9c0fc77779}, !- Construction Name
  ExteriorRoof,                           !- Intended Surface Type
  IEAD;                                   !- Standards Construction Type

OS:Material,
  {f0d68e1d-0d43-49d8-82de-3dcc92a1e5fb}, !- Handle
  Roof Insulation [21],                   !- Name
  MediumRough,                            !- Roughness
  0.2105,                                 !- Thickness {m}
  0.049,                                  !- Conductivity {W/m-K}
  265,                                    !- Density {kg/m3}
  836.800000000001,                       !- Specific Heat {J/kg-K}
  0.9,                                    !- Thermal Absorptance
  0.7,                                    !- Solar Absorptance
  0.7;                                    !- Visible Absorptance

OS:Construction,
  {bfc60922-970d-43e5-86eb-f7b88fabc917}, !- Handle
  ASHRAE 189.1-2009 ExtRoof IEAD ClimateZone 6, !- Name
  ,                                       !- Surface Rendering Name
  {505422ac-0f3a-4e5f-813f-515aff9b8640}, !- Layer 1
  {5fe63630-8319-4b39-a133-e7a3f2d169d7}, !- Layer 2
  {0ea7d49b-6031-47d5-8c8b-173c1205bbbf}; !- Layer 3

OS:StandardsInformation:Construction,
  {2c140662-a1d6-4533-91eb-177867216160}, !- Handle
  {bfc60922-970d-43e5-86eb-f7b88fabc917}, !- Construction Name
  ExteriorRoof,                           !- Intended Surface Type
  IEAD;                                   !- Standards Construction Type

OS:Material,
  {5fe63630-8319-4b39-a133-e7a3f2d169d7}, !- Handle
  Roof Insulation [24],                   !- Name
  MediumRough,                            !- Roughness
  0.260100000000001,                      !- Thickness {m}
  0.049,                                  !- Conductivity {W/m-K}
  265,                                    !- Density {kg/m3}
  836.800000000001,                       !- Specific Heat {J/kg-K}
  0.9,                                    !- Thermal Absorptance
  0.7,                                    !- Solar Absorptance
  0.7;                                    !- Visible Absorptance

OS:Construction,
  {d597d14f-af48-4b1d-b5bf-e29af48fc047}, !- Handle
  ASHRAE 189.1-2009 ExtRoof IEAD ClimateZone 7-8, !- Name
  ,                                       !- Surface Rendering Name
  {505422ac-0f3a-4e5f-813f-515aff9b8640}, !- Layer 1
  {dd62df90-0300-4d32-bf58-82cab966bfc0}, !- Layer 2
  {0ea7d49b-6031-47d5-8c8b-173c1205bbbf}; !- Layer 3

OS:StandardsInformation:Construction,
  {f37ab91a-e382-49e4-8a39-838deb7a6078}, !- Handle
  {d597d14f-af48-4b1d-b5bf-e29af48fc047}, !- Construction Name
  ExteriorRoof,                           !- Intended Surface Type
  IEAD;                                   !- Standards Construction Type

OS:Material,
  {dd62df90-0300-4d32-bf58-82cab966bfc0}, !- Handle
  Roof Insulation [26],                   !- Name
  MediumRough,                            !- Roughness
  0.2941,                                 !- Thickness {m}
  0.049,                                  !- Conductivity {W/m-K}
  265,                                    !- Density {kg/m3}
  836.800000000001,                       !- Specific Heat {J/kg-K}
  0.9,                                    !- Thermal Absorptance
  0.7,                                    !- Solar Absorptance
  0.7;                                    !- Visible Absorptance

OS:Construction,
  {035a1e4b-b62a-47d6-ac51-030f199f1202}, !- Handle
  ASHRAE 189.1-2009 ExtRoof Metal ClimateZone 1, !- Name
  ,                                       !- Surface Rendering Name
  {cb09478d-0887-4e1c-a43c-88103f57a146}, !- Layer 1
  {3aafe353-24da-4902-9aed-4265b7e9258c}, !- Layer 2
  {0ea7d49b-6031-47d5-8c8b-173c1205bbbf}; !- Layer 3

OS:StandardsInformation:Construction,
  {29dbb8e2-f779-4a3f-a209-d2d95c4505d4}, !- Handle
  {035a1e4b-b62a-47d6-ac51-030f199f1202}, !- Construction Name
  ExteriorRoof,                           !- Intended Surface Type
  Metal;                                  !- Standards Construction Type

OS:Material,
  {cb09478d-0887-4e1c-a43c-88103f57a146}, !- Handle
  Metal Roofing,                          !- Name
  MediumSmooth,                           !- Roughness
  0.0015,                                 !- Thickness {m}
  45.006,                                 !- Conductivity {W/m-K}
  7680,                                   !- Density {kg/m3}
  418.4,                                  !- Specific Heat {J/kg-K}
  0.9,                                    !- Thermal Absorptance
  0.6,                                    !- Solar Absorptance
  0.6;                                    !- Visible Absorptance

OS:Material,
  {3aafe353-24da-4902-9aed-4265b7e9258c}, !- Handle
  Roof Insulation [19],                   !- Name
  MediumRough,                            !- Roughness
  0.1868,                                 !- Thickness {m}
  0.049,                                  !- Conductivity {W/m-K}
  265,                                    !- Density {kg/m3}
  836.800000000001,                       !- Specific Heat {J/kg-K}
  0.9,                                    !- Thermal Absorptance
  0.7,                                    !- Solar Absorptance
  0.7;                                    !- Visible Absorptance

OS:Construction,
  {f240d670-2476-40fa-a8a9-5c99a439db45}, !- Handle
  ASHRAE 189.1-2009 ExtRoof Metal ClimateZone 2-5, !- Name
  ,                                       !- Surface Rendering Name
  {cb09478d-0887-4e1c-a43c-88103f57a146}, !- Layer 1
  {33dd2a7c-3924-406e-970c-ab4f5ad9432b}, !- Layer 2
  {0ea7d49b-6031-47d5-8c8b-173c1205bbbf}; !- Layer 3

OS:StandardsInformation:Construction,
  {eccc6c78-63fe-4ac6-a1c4-14be9c7abef7}, !- Handle
  {f240d670-2476-40fa-a8a9-5c99a439db45}, !- Construction Name
  ExteriorRoof,                           !- Intended Surface Type
  Metal;                                  !- Standards Construction Type

OS:Material,
  {33dd2a7c-3924-406e-970c-ab4f5ad9432b}, !- Handle
  Roof Insulation [22],                   !- Name
  MediumRough,                            !- Roughness
  0.2358,                                 !- Thickness {m}
  0.049,                                  !- Conductivity {W/m-K}
  265,                                    !- Density {kg/m3}
  836.800000000001,                       !- Specific Heat {J/kg-K}
  0.9,                                    !- Thermal Absorptance
  0.7,                                    !- Solar Absorptance
  0.7;                                    !- Visible Absorptance

OS:Construction,
  {ee132d3c-2341-4266-9dbc-7628c2086858}, !- Handle
  ASHRAE 189.1-2009 ExtRoof Metal ClimateZone 6, !- Name
  ,                                       !- Surface Rendering Name
  {cb09478d-0887-4e1c-a43c-88103f57a146}, !- Layer 1
  {090673da-f725-4d77-bfaa-bc50700fa38d}, !- Layer 2
  {0ea7d49b-6031-47d5-8c8b-173c1205bbbf}; !- Layer 3

OS:StandardsInformation:Construction,
  {dc437469-3030-457a-b1c7-62a850f201d0}, !- Handle
  {ee132d3c-2341-4266-9dbc-7628c2086858}, !- Construction Name
  ExteriorRoof,                           !- Intended Surface Type
  Metal;                                  !- Standards Construction Type

OS:Material,
  {090673da-f725-4d77-bfaa-bc50700fa38d}, !- Handle
  Roof Insulation [25],                   !- Name
  MediumRough,                            !- Roughness
  0.263,                                  !- Thickness {m}
  0.049,                                  !- Conductivity {W/m-K}
  265,                                    !- Density {kg/m3}
  836.800000000001,                       !- Specific Heat {J/kg-K}
  0.9,                                    !- Thermal Absorptance
  0.7,                                    !- Solar Absorptance
  0.7;                                    !- Visible Absorptance

OS:Construction,
  {92d9f412-e40b-4dd4-943d-bf9d880bcb9c}, !- Handle
  ASHRAE 189.1-2009 ExtRoof Metal ClimateZone 7-8, !- Name
  ,                                       !- Surface Rendering Name
  {cb09478d-0887-4e1c-a43c-88103f57a146}, !- Layer 1
  {e912877a-0096-40f9-a78b-39a2249e7d91}, !- Layer 2
  {0ea7d49b-6031-47d5-8c8b-173c1205bbbf}; !- Layer 3

OS:StandardsInformation:Construction,
  {ef2da541-6197-4a48-9e6a-e7dadff09de7}, !- Handle
  {92d9f412-e40b-4dd4-943d-bf9d880bcb9c}, !- Construction Name
  ExteriorRoof,                           !- Intended Surface Type
  Metal;                                  !- Standards Construction Type

OS:Material,
  {e912877a-0096-40f9-a78b-39a2249e7d91}, !- Handle
  Roof Insulation [27],                   !- Name
  MediumRough,                            !- Roughness
  0.297000000000001,                      !- Thickness {m}
  0.049,                                  !- Conductivity {W/m-K}
  265,                                    !- Density {kg/m3}
  836.800000000001,                       !- Specific Heat {J/kg-K}
  0.9,                                    !- Thermal Absorptance
  0.7,                                    !- Solar Absorptance
  0.7;                                    !- Visible Absorptance

OS:Construction,
  {4347504c-e75e-4aa1-b711-e23aefd5fc1b}, !- Handle
  ASHRAE 189.1-2009 ExtWall Mass ClimateZone 1, !- Name
  ,                                       !- Surface Rendering Name
  {8dd02ed2-5d6e-4d57-a4a7-facb89e9c932}, !- Layer 1
  {e8438df9-f28c-4b91-a5c6-4033b4395899}, !- Layer 2
  {c27eadfd-5d1e-4160-acaa-46371efc3488}, !- Layer 3
  {a04f3bf2-599b-463b-835f-3e6edd6145e8}; !- Layer 4

OS:StandardsInformation:Construction,
  {2d2dbe31-0010-480d-a2eb-a6c3a2b42808}, !- Handle
  {4347504c-e75e-4aa1-b711-e23aefd5fc1b}, !- Construction Name
  ExteriorWall,                           !- Intended Surface Type
  Mass;                                   !- Standards Construction Type

OS:Material,
  {8dd02ed2-5d6e-4d57-a4a7-facb89e9c932}, !- Handle
  1IN Stucco,                             !- Name
  Smooth,                                 !- Roughness
  0.0253,                                 !- Thickness {m}
  0.691799999999999,                      !- Conductivity {W/m-K}
  1858,                                   !- Density {kg/m3}
  836.999999999999,                       !- Specific Heat {J/kg-K}
  0.9,                                    !- Thermal Absorptance
  0.92,                                   !- Solar Absorptance
  0.92;                                   !- Visible Absorptance

OS:Material,
  {e8438df9-f28c-4b91-a5c6-4033b4395899}, !- Handle
  8IN Concrete HW,                        !- Name
  MediumRough,                            !- Roughness
  0.2033,                                 !- Thickness {m}
  1.72959999999999,                       !- Conductivity {W/m-K}
  2242.99999999999,                       !- Density {kg/m3}
  836.999999999999,                       !- Specific Heat {J/kg-K}
  0.9,                                    !- Thermal Absorptance
  0.65,                                   !- Solar Absorptance
  0.65;                                   !- Visible Absorptance

OS:Material,
  {c27eadfd-5d1e-4160-acaa-46371efc3488}, !- Handle
  Wall Insulation [31],                   !- Name
  MediumRough,                            !- Roughness
  0.0337000000000001,                     !- Thickness {m}
  0.0432,                                 !- Conductivity {W/m-K}
  91,                                     !- Density {kg/m3}
  836.999999999999,                       !- Specific Heat {J/kg-K}
  0.9,                                    !- Thermal Absorptance
  0.5,                                    !- Solar Absorptance
  0.5;                                    !- Visible Absorptance

OS:Construction,
  {6a8cc8f7-9790-4b88-a555-84d68213f1ed}, !- Handle
  ASHRAE 189.1-2009 ExtWall Mass ClimateZone 2, !- Name
  ,                                       !- Surface Rendering Name
  {8dd02ed2-5d6e-4d57-a4a7-facb89e9c932}, !- Layer 1
  {e8438df9-f28c-4b91-a5c6-4033b4395899}, !- Layer 2
  {5eb49d2f-88aa-4d6e-8214-5e22e55c7971}, !- Layer 3
  {a04f3bf2-599b-463b-835f-3e6edd6145e8}; !- Layer 4

OS:StandardsInformation:Construction,
  {6e124f52-e505-493e-99fc-9bcba2f04c79}, !- Handle
  {6a8cc8f7-9790-4b88-a555-84d68213f1ed}, !- Construction Name
  ExteriorWall,                           !- Intended Surface Type
  Mass;                                   !- Standards Construction Type

OS:Material,
  {5eb49d2f-88aa-4d6e-8214-5e22e55c7971}, !- Handle
  Wall Insulation [35],                   !- Name
  MediumRough,                            !- Roughness
  0.0452,                                 !- Thickness {m}
  0.0432,                                 !- Conductivity {W/m-K}
  91,                                     !- Density {kg/m3}
  836.999999999999,                       !- Specific Heat {J/kg-K}
  0.9,                                    !- Thermal Absorptance
  0.5,                                    !- Solar Absorptance
  0.5;                                    !- Visible Absorptance

OS:Construction,
  {7e81d125-e6c2-4cac-aca3-cd6e59a05481}, !- Handle
  ASHRAE 189.1-2009 ExtWall Mass ClimateZone 3, !- Name
  ,                                       !- Surface Rendering Name
  {8dd02ed2-5d6e-4d57-a4a7-facb89e9c932}, !- Layer 1
  {e8438df9-f28c-4b91-a5c6-4033b4395899}, !- Layer 2
  {9377972a-c81f-4c00-9375-7ae697b5c610}, !- Layer 3
  {a04f3bf2-599b-463b-835f-3e6edd6145e8}; !- Layer 4

OS:StandardsInformation:Construction,
  {6cef3622-9292-47e8-b07f-a8410e78df66}, !- Handle
  {7e81d125-e6c2-4cac-aca3-cd6e59a05481}, !- Construction Name
  ExteriorWall,                           !- Intended Surface Type
  Mass;                                   !- Standards Construction Type

OS:Material,
  {9377972a-c81f-4c00-9375-7ae697b5c610}, !- Handle
  Wall Insulation [36],                   !- Name
  MediumRough,                            !- Roughness
  0.0565999999999999,                     !- Thickness {m}
  0.0432,                                 !- Conductivity {W/m-K}
  91,                                     !- Density {kg/m3}
  836.999999999999,                       !- Specific Heat {J/kg-K}
  0.9,                                    !- Thermal Absorptance
  0.5,                                    !- Solar Absorptance
  0.5;                                    !- Visible Absorptance

OS:Construction,
  {3eb6c9a6-8689-443c-89a9-d938541cb505}, !- Handle
  ASHRAE 189.1-2009 ExtWall Mass ClimateZone 4, !- Name
  ,                                       !- Surface Rendering Name
  {8dd02ed2-5d6e-4d57-a4a7-facb89e9c932}, !- Layer 1
  {e8438df9-f28c-4b91-a5c6-4033b4395899}, !- Layer 2
  {1c2f4233-85e4-4e2d-b145-7e9b1e1bc90d}, !- Layer 3
  {a04f3bf2-599b-463b-835f-3e6edd6145e8}; !- Layer 4

OS:StandardsInformation:Construction,
  {39737ed2-46f2-406f-a6ef-10232376cb3f}, !- Handle
  {3eb6c9a6-8689-443c-89a9-d938541cb505}, !- Construction Name
  ExteriorWall,                           !- Intended Surface Type
  Mass;                                   !- Standards Construction Type

OS:Material,
  {1c2f4233-85e4-4e2d-b145-7e9b1e1bc90d}, !- Handle
  Wall Insulation [37],                   !- Name
  MediumRough,                            !- Roughness
  0.0680999999999999,                     !- Thickness {m}
  0.0432,                                 !- Conductivity {W/m-K}
  91,                                     !- Density {kg/m3}
  836.999999999999,                       !- Specific Heat {J/kg-K}
  0.9,                                    !- Thermal Absorptance
  0.5,                                    !- Solar Absorptance
  0.5;                                    !- Visible Absorptance

OS:Construction,
  {7ab660f1-64df-49b9-bda8-79d5c82b45f8}, !- Handle
  ASHRAE 189.1-2009 ExtWall Mass ClimateZone 5, !- Name
  ,                                       !- Surface Rendering Name
  {8dd02ed2-5d6e-4d57-a4a7-facb89e9c932}, !- Layer 1
  {e8438df9-f28c-4b91-a5c6-4033b4395899}, !- Layer 2
  {926d3ce6-4514-45a7-856e-fa4d3f1a8cce}, !- Layer 3
  {a04f3bf2-599b-463b-835f-3e6edd6145e8}; !- Layer 4

OS:StandardsInformation:Construction,
  {a996dad3-b977-4496-8925-e25377334393}, !- Handle
  {7ab660f1-64df-49b9-bda8-79d5c82b45f8}, !- Construction Name
  ExteriorWall,                           !- Intended Surface Type
  Mass;                                   !- Standards Construction Type

OS:Material,
  {926d3ce6-4514-45a7-856e-fa4d3f1a8cce}, !- Handle
  Wall Insulation [40],                   !- Name
  MediumRough,                            !- Roughness
  0.0793999999999999,                     !- Thickness {m}
  0.0432,                                 !- Conductivity {W/m-K}
  91,                                     !- Density {kg/m3}
  836.999999999999,                       !- Specific Heat {J/kg-K}
  0.9,                                    !- Thermal Absorptance
  0.5,                                    !- Solar Absorptance
  0.5;                                    !- Visible Absorptance

OS:Construction,
  {600e0d11-98ea-4a1c-9617-6c7d6c26007f}, !- Handle
  ASHRAE 189.1-2009 ExtWall Mass ClimateZone 6, !- Name
  ,                                       !- Surface Rendering Name
  {8dd02ed2-5d6e-4d57-a4a7-facb89e9c932}, !- Layer 1
  {e8438df9-f28c-4b91-a5c6-4033b4395899}, !- Layer 2
  {a289ae10-9518-4dc3-b25b-688a493050de}, !- Layer 3
  {a04f3bf2-599b-463b-835f-3e6edd6145e8}; !- Layer 4

OS:StandardsInformation:Construction,
  {f8436654-a415-401c-94d2-f34855477fff}, !- Handle
  {600e0d11-98ea-4a1c-9617-6c7d6c26007f}, !- Construction Name
  ExteriorWall,                           !- Intended Surface Type
  Mass;                                   !- Standards Construction Type

OS:Material,
  {a289ae10-9518-4dc3-b25b-688a493050de}, !- Handle
  Wall Insulation [42],                   !- Name
  MediumRough,                            !- Roughness
  0.0913999999999999,                     !- Thickness {m}
  0.0432,                                 !- Conductivity {W/m-K}
  91,                                     !- Density {kg/m3}
  836.999999999999,                       !- Specific Heat {J/kg-K}
  0.9,                                    !- Thermal Absorptance
  0.5,                                    !- Solar Absorptance
  0.5;                                    !- Visible Absorptance

OS:Construction,
  {08b3e6b5-0a52-49cc-b168-441dc488ac41}, !- Handle
  ASHRAE 189.1-2009 ExtWall Mass ClimateZone 7-8, !- Name
  ,                                       !- Surface Rendering Name
  {8dd02ed2-5d6e-4d57-a4a7-facb89e9c932}, !- Layer 1
  {e8438df9-f28c-4b91-a5c6-4033b4395899}, !- Layer 2
  {f0fac593-37e6-4559-9cad-27f8a6db776f}, !- Layer 3
  {a04f3bf2-599b-463b-835f-3e6edd6145e8}; !- Layer 4

OS:StandardsInformation:Construction,
  {a17e5fcd-22ec-44b6-b8d2-4c84da43c187}, !- Handle
  {08b3e6b5-0a52-49cc-b168-441dc488ac41}, !- Construction Name
  ExteriorWall,                           !- Intended Surface Type
  Mass;                                   !- Standards Construction Type

OS:Material,
  {f0fac593-37e6-4559-9cad-27f8a6db776f}, !- Handle
  Wall Insulation [44],                   !- Name
  MediumRough,                            !- Roughness
  0.1104,                                 !- Thickness {m}
  0.0432,                                 !- Conductivity {W/m-K}
  91,                                     !- Density {kg/m3}
  836.999999999999,                       !- Specific Heat {J/kg-K}
  0.9,                                    !- Thermal Absorptance
  0.5,                                    !- Solar Absorptance
  0.5;                                    !- Visible Absorptance

OS:Construction,
  {85c09c8d-c39b-440e-8c0e-6a26c9be5abf}, !- Handle
  ASHRAE 189.1-2009 ExtWall Mass ClimateZone alt-res 1, !- Name
  ,                                       !- Surface Rendering Name
  {8dd02ed2-5d6e-4d57-a4a7-facb89e9c932}, !- Layer 1
  {e8438df9-f28c-4b91-a5c6-4033b4395899}, !- Layer 2
  {5eb49d2f-88aa-4d6e-8214-5e22e55c7971}, !- Layer 3
  {a04f3bf2-599b-463b-835f-3e6edd6145e8}; !- Layer 4

OS:StandardsInformation:Construction,
  {69768214-419e-4488-8268-7e07785f762f}, !- Handle
  {85c09c8d-c39b-440e-8c0e-6a26c9be5abf}, !- Construction Name
  ExteriorWall,                           !- Intended Surface Type
  Mass;                                   !- Standards Construction Type

OS:Construction,
  {6ce42598-eab1-4c89-8265-e888ee4905d4}, !- Handle
  ASHRAE 189.1-2009 ExtWall Mass ClimateZone alt-res 2, !- Name
  ,                                       !- Surface Rendering Name
  {8dd02ed2-5d6e-4d57-a4a7-facb89e9c932}, !- Layer 1
  {e8438df9-f28c-4b91-a5c6-4033b4395899}, !- Layer 2
  {9377972a-c81f-4c00-9375-7ae697b5c610}, !- Layer 3
  {a04f3bf2-599b-463b-835f-3e6edd6145e8}; !- Layer 4

OS:StandardsInformation:Construction,
  {b6d2a4b3-3c92-4789-a644-fbdc06cbb38b}, !- Handle
  {6ce42598-eab1-4c89-8265-e888ee4905d4}, !- Construction Name
  ExteriorWall,                           !- Intended Surface Type
  Mass;                                   !- Standards Construction Type

OS:Construction,
  {adc7f89c-ff18-48e1-966f-dcb1e83d4875}, !- Handle
  ASHRAE 189.1-2009 ExtWall Mass ClimateZone alt-res 3, !- Name
  ,                                       !- Surface Rendering Name
  {8dd02ed2-5d6e-4d57-a4a7-facb89e9c932}, !- Layer 1
  {e8438df9-f28c-4b91-a5c6-4033b4395899}, !- Layer 2
  {1c2f4233-85e4-4e2d-b145-7e9b1e1bc90d}, !- Layer 3
  {a04f3bf2-599b-463b-835f-3e6edd6145e8}; !- Layer 4

OS:StandardsInformation:Construction,
  {e67bf948-c4bd-4b6f-ba7a-d8c4632d8fc5}, !- Handle
  {adc7f89c-ff18-48e1-966f-dcb1e83d4875}, !- Construction Name
  ExteriorWall,                           !- Intended Surface Type
  Mass;                                   !- Standards Construction Type

OS:Construction,
  {0d519f54-021c-4321-991e-f26a800c2a7a}, !- Handle
  ASHRAE 189.1-2009 ExtWall Mass ClimateZone alt-res 4, !- Name
  ,                                       !- Surface Rendering Name
  {8dd02ed2-5d6e-4d57-a4a7-facb89e9c932}, !- Layer 1
  {e8438df9-f28c-4b91-a5c6-4033b4395899}, !- Layer 2
  {926d3ce6-4514-45a7-856e-fa4d3f1a8cce}, !- Layer 3
  {a04f3bf2-599b-463b-835f-3e6edd6145e8}; !- Layer 4

OS:StandardsInformation:Construction,
  {e09abc0a-2206-4670-b7e4-b69c43d828b3}, !- Handle
  {0d519f54-021c-4321-991e-f26a800c2a7a}, !- Construction Name
  ExteriorWall,                           !- Intended Surface Type
  Mass;                                   !- Standards Construction Type

OS:Construction,
  {799c9c4f-a37a-4168-8391-5400cc15a8cd}, !- Handle
  ASHRAE 189.1-2009 ExtWall Mass ClimateZone alt-res 5, !- Name
  ,                                       !- Surface Rendering Name
  {8dd02ed2-5d6e-4d57-a4a7-facb89e9c932}, !- Layer 1
  {e8438df9-f28c-4b91-a5c6-4033b4395899}, !- Layer 2
  {a289ae10-9518-4dc3-b25b-688a493050de}, !- Layer 3
  {a04f3bf2-599b-463b-835f-3e6edd6145e8}; !- Layer 4

OS:StandardsInformation:Construction,
  {4f20e295-0bab-4d0c-868f-a29808844dae}, !- Handle
  {799c9c4f-a37a-4168-8391-5400cc15a8cd}, !- Construction Name
  ExteriorWall,                           !- Intended Surface Type
  Mass;                                   !- Standards Construction Type

OS:Construction,
  {ef762638-c251-4b5b-804f-2fdaa062766a}, !- Handle
  ASHRAE 189.1-2009 ExtWall Mass ClimateZone alt-res 6, !- Name
  ,                                       !- Surface Rendering Name
  {8dd02ed2-5d6e-4d57-a4a7-facb89e9c932}, !- Layer 1
  {e8438df9-f28c-4b91-a5c6-4033b4395899}, !- Layer 2
  {f0fac593-37e6-4559-9cad-27f8a6db776f}, !- Layer 3
  {a04f3bf2-599b-463b-835f-3e6edd6145e8}; !- Layer 4

OS:StandardsInformation:Construction,
  {834e7c75-e5f9-4d7a-9b7d-f0788828dfcd}, !- Handle
  {ef762638-c251-4b5b-804f-2fdaa062766a}, !- Construction Name
  ExteriorWall,                           !- Intended Surface Type
  Mass;                                   !- Standards Construction Type

OS:Construction,
  {4896ceba-1412-46ac-987e-f9a549df78ce}, !- Handle
  ASHRAE 189.1-2009 ExtWall Mass ClimateZone alt-res 7, !- Name
  ,                                       !- Surface Rendering Name
  {8dd02ed2-5d6e-4d57-a4a7-facb89e9c932}, !- Layer 1
  {e8438df9-f28c-4b91-a5c6-4033b4395899}, !- Layer 2
  {f0fac593-37e6-4559-9cad-27f8a6db776f}, !- Layer 3
  {a04f3bf2-599b-463b-835f-3e6edd6145e8}; !- Layer 4

OS:StandardsInformation:Construction,
  {590dd7f1-b64f-4044-a870-a8fa9bcf9cf5}, !- Handle
  {4896ceba-1412-46ac-987e-f9a549df78ce}, !- Construction Name
  ExteriorWall,                           !- Intended Surface Type