
OS:Version,
  {7212ca97-9ad3-4f36-8361-a657d916de93}, !- Handle
  1.2.3;                                  !- Version Identifier

OS:Construction,
  {5a6c2a15-f20c-415a-86a9-11a2f0c7cfdd}, !- Handle
  ASHRAE 189.1-2009 AtticFloor ClimateZone 1-8, !- Name
  ,                                       !- Surface Rendering Name
  {1974d069-0a0f-4b10-a35a-fdb1ae9446ce}, !- Layer 1
  {55d31ece-9441-4661-aa13-e775b2049c95}, !- Layer 2
  {1974d069-0a0f-4b10-a35a-fdb1ae9446ce}; !- Layer 3

OS:StandardsInformation:Construction,
  {1ea5cfd9-8865-4add-a698-40a164fb55d3}, !- Handle
  {5a6c2a15-f20c-415a-86a9-11a2f0c7cfdd}, !- Construction Name
  AtticFloor,                             !- Intended Surface Type
  WoodFramed;                             !- Standards Construction Type

OS:Material,
  {1974d069-0a0f-4b10-a35a-fdb1ae9446ce}, !- Handle
  1/2IN Gypsum,                           !- Name
  Smooth,                                 !- Roughness
  0.0127,                                 !- Thickness {m}
  0.16,                                   !- Conductivity {W/m-K}
  784.9,                                  !- Density {kg/m3}
  830.000000000001,                       !- Specific Heat {J/kg-K}
  0.9,                                    !- Thermal Absorptance
  0.92,                                   !- Solar Absorptance
  0.92;                                   !- Visible Absorptance

OS:Material,
  {55d31ece-9441-4661-aa13-e775b2049c95}, !- Handle
  AtticFloor Insulation,                  !- Name
  MediumRough,                            !- Roughness
  0.2379,                                 !- Thickness {m}
  0.049,                                  !- Conductivity {W/m-K}
  265,                                    !- Density {kg/m3}
  836.800000000001,                       !- Specific Heat {J/kg-K}
  0.9,                                    !- Thermal Absorptance
  0.7,                                    !- Solar Absorptance
  0.7;                                    !- Visible Absorptance

OS:Construction,
  {a37aef64-3db4-4aa1-8da8-8b3421b70826}, !- Handle
  ASHRAE 189.1-2009 ExtRoof IEAD ClimateZone 1, !- Name
  ,                                       !- Surface Rendering Name
  {1923e650-a8f2-4f5b-9051-654b737ed378}, !- Layer 1
  {ef836a5e-4b58-4e8b-836c-12f3816a7b74}, !- Layer 2
  {a7d32921-f50a-4852-9e68-9a223ee9c0ab}; !- Layer 3

OS:StandardsInformation:Construction,
  {2dc1f1f6-6629-4cf4-a437-c43d99b0db22}, !- Handle
  {a37aef64-3db4-4aa1-8da8-8b3421b70826}, !- Construction Name
  ExteriorRoof,                           !- Intended Surface Type
  IEAD;                                   !- Standards Construction Type

OS:Material,
  {1923e650-a8f2-4f5b-9051-654b737ed378}, !- Handle
  Roof Membrane,                          !- Name
  VeryRough,                              !- Roughness
  0.0095,                                 !- Thickness {m}
  0.16,                                   !- Conductivity {W/m-K}
  1121.29,                                !- Density {kg/m3}
  1460,                                   !- Specific Heat {J/kg-K}
  0.9,                                    !- Thermal Absorptance
  0.7,                                    !- Solar Absorptance
  0.7;                                    !- Visible Absorptance

OS:Material,
  {ef836a5e-4b58-4e8b-836c-12f3816a7b74}, !- Handle
  Roof Insulation [18],                   !- Name
  MediumRough,                            !- Roughness
  0.1693,                                 !- Thickness {m}
  0.049,                                  !- Conductivity {W/m-K}
  265,                                    !- Density {kg/m3}
  836.800000000001,                       !- Specific Heat {J/kg-K}
  0.9,                                    !- Thermal Absorptance
  0.7,                                    !- Solar Absorptance
  0.7;                                    !- Visible Absorptance

OS:Material,
  {a7d32921-f50a-4852-9e68-9a223ee9c0ab}, !- Handle
  Metal Decking,                          !- Name
  MediumSmooth,                           !- Roughness
  0.0015,                                 !- Thickness {m}
  45.006,                                 !- Conductivity {W/m-K}
  7680,                                   !- Density {kg/m3}
  418.4,                                  !- Specific Heat {J/kg-K}
  0.9,                                    !- Thermal Absorptance
  0.7,                                    !- Solar Absorptance
  0.3;                                    !- Visible Absorptance

OS:Construction,
  {3a337d98-9f8e-4612-ab0e-23c3dde08cb5}, !- Handle
  ASHRAE 189.1-2009 ExtRoof IEAD ClimateZone 2-5, !- Name
  ,                                       !- Surface Rendering Name
  {1923e650-a8f2-4f5b-9051-654b737ed378}, !- Layer 1
  {ad818a54-f943-4e75-ab52-69697795ac03}, !- Layer 2
  {a7d32921-f50a-4852-9e68-9a223ee9c0ab}; !- Layer 3

OS:StandardsInformation:Construction,
  {94780ee6-e11a-4466-ad6d-2959763870d6}, !- Handle
  {3a337d98-9f8e-4612-ab0e-23c3dde08cb5}, !- Construction Name
  ExteriorRoof,                           !- Intended Surface Type
  IEAD;                                   !- Standards Construction Type

OS:Material,
  {ad818a54-f943-4e75-ab52-69697795ac03}, !- Handle
  Roof Insulation [21],                   !- Name
  MediumRough,                            !- Roughness
  0.2105,                                 !- Thickness {m}
  0.049,                                  !- Conductivity {W/m-K}
  265,                                    !- Density {kg/m3}
  836.800000000001,                       !- Specific Heat {J/kg-K}
  0.9,                                    !- Thermal Absorptance
  0.7,                                    !- Solar Absorptance
  0.7;                                    !- Visible Absorptance

OS:Construction,
  {6cffaf3e-f56c-4c5c-936e-a57adddd2734}, !- Handle
  ASHRAE 189.1-2009 ExtRoof IEAD ClimateZone 6, !- Name
  ,                                       !- Surface Rendering Name
  {1923e650-a8f2-4f5b-9051-654b737ed378}, !- Layer 1
  {688d645e-b56e-432b-b868-7cd52168b146}, !- Layer 2
  {a7d32921-f50a-4852-9e68-9a223ee9c0ab}; !- Layer 3

OS:StandardsInformation:Construction,
  {b5a6dafd-83fb-42c2-bd47-cb4a26725ffc}, !- Handle
  {6cffaf3e-f56c-4c5c-936e-a57adddd2734}, !- Construction Name
  ExteriorRoof,                           !- Intended Surface Type
  IEAD;                                   !- Standards Construction Type

OS:Material,
  {688d645e-b56e-432b-b868-7cd52168b146}, !- Handle
  Roof Insulation [24],                   !- Name
  MediumRough,                            !- Roughness
  0.260100000000001,                      !- Thickness {m}
  0.049,                                  !- Conductivity {W/m-K}
  265,                                    !- Density {kg/m3}
  836.800000000001,                       !- Specific Heat {J/kg-K}
  0.9,                                    !- Thermal Absorptance
  0.7,                                    !- Solar Absorptance
  0.7;                                    !- Visible Absorptance

OS:Construction,
  {d2f9f523-a225-4d51-b887-1d3e11059e84}, !- Handle
  ASHRAE 189.1-2009 ExtRoof IEAD ClimateZone 7-8, !- Name
  ,                                       !- Surface Rendering Name
  {1923e650-a8f2-4f5b-9051-654b737ed378}, !- Layer 1
  {164abeca-ae8e-449a-8aad-42a01ec87ec7}, !- Layer 2
  {a7d32921-f50a-4852-9e68-9a223ee9c0ab}; !- Layer 3

OS:StandardsInformation:Construction,
  {2bc9c1e2-d4f5-4ad2-a4c4-1938f9f9922f}, !- Handle
  {d2f9f523-a225-4d51-b887-1d3e11059e84}, !- Construction Name
  ExteriorRoof,                           !- Intended Surface Type
  IEAD;                                   !- Standards Construction Type

OS:Material,
  {164abeca-ae8e-449a-8aad-42a01ec87ec7}, !- Handle
  Roof Insulation [26],                   !- Name
  MediumRough,                            !- Roughness
  0.2941,                                 !- Thickness {m}
  0.049,                                  !- Conductivity {W/m-K}
  265,                                    !- Density {kg/m3}
  836.800000000001,                       !- Specific Heat {J/kg-K}
  0.9,                                    !- Thermal Absorptance
  0.7,                                    !- Solar Absorptance
  0.7;                                    !- Visible Absorptance

OS:Construction,
  {c6e981e3-a43a-47a6-93c3-ccc177b13127}, !- Handle
  ASHRAE 189.1-2009 ExtRoof Metal ClimateZone 1, !- Name
  ,                                       !- Surface Rendering Name
  {fc60cb8a-219b-4a9e-87f9-c94ff0ab0d0d}, !- Layer 1
  {e907a91c-0046-45ed-934b-cd22f1112d48}; !- Layer 2

OS:StandardsInformation:Construction,
  {063ba33e-b000-499e-bc8f-226a170d39ff}, !- Handle
  {c6e981e3-a43a-47a6-93c3-ccc177b13127}, !- Construction Name
  ExteriorRoof,                           !- Intended Surface Type
  Metal;                                  !- Standards Construction Type

OS:Material,
  {fc60cb8a-219b-4a9e-87f9-c94ff0ab0d0d}, !- Handle
  Metal Roofing,                          !- Name
  MediumSmooth,                           !- Roughness
  0.0015,                                 !- Thickness {m}
  45.006,                                 !- Conductivity {W/m-K}
  7680,                                   !- Density {kg/m3}
  418.4,                                  !- Specific Heat {J/kg-K}
  0.9,                                    !- Thermal Absorptance
  0.3,                                    !- Solar Absorptance
  0.3;                                    !- Visible Absorptance

OS:Material,
  {e907a91c-0046-45ed-934b-cd22f1112d48}, !- Handle
  Roof Insulation [19],                   !- Name
  MediumRough,                            !- Roughness
  0.1868,                                 !- Thickness {m}
  0.049,                                  !- Conductivity {W/m-K}
  265,                                    !- Density {kg/m3}
  836.800000000001,                       !- Specific Heat {J/kg-K}
  0.9,                                    !- Thermal Absorptance
  0.7,                                    !- Solar Absorptance
  0.7;                                    !- Visible Absorptance

OS:Construction,
  {c9e4e6e9-75dd-4cf0-b09a-88efd094c658}, !- Handle
  ASHRAE 189.1-2009 ExtRoof Metal ClimateZone 2-5, !- Name
  ,                                       !- Surface Rendering Name
  {fc60cb8a-219b-4a9e-87f9-c94ff0ab0d0d}, !- Layer 1
  {4598e7bc-e2c4-45b4-9d10-7b800f364c60}; !- Layer 2

OS:StandardsInformation:Construction,
  {c2b6ec09-af02-495b-bdab-1fe096653d3c}, !- Handle
  {c9e4e6e9-75dd-4cf0-b09a-88efd094c658}, !- Construction Name
  ExteriorRoof,                           !- Intended Surface Type
  Metal;                                  !- Standards Construction Type

OS:Material,
  {4598e7bc-e2c4-45b4-9d10-7b800f364c60}, !- Handle
  Roof Insulation [22],                   !- Name
  MediumRough,                            !- Roughness
  0.2358,                                 !- Thickness {m}
  0.049,                                  !- Conductivity {W/m-K}
  265,                                    !- Density {kg/m3}
  836.800000000001,                       !- Specific Heat {J/kg-K}
  0.9,                                    !- Thermal Absorptance
  0.7,                                    !- Solar Absorptance
  0.7;                                    !- Visible Absorptance

OS:Construction,
  {a5b13a1d-1a7c-483d-b4b2-7c798aa329ab}, !- Handle
  ASHRAE 189.1-2009 ExtRoof Metal ClimateZone 6, !- Name
  ,                                       !- Surface Rendering Name
  {fc60cb8a-219b-4a9e-87f9-c94ff0ab0d0d}, !- Layer 1
  {a6336191-9c21-46b1-8ae5-b7a85cf937f0}; !- Layer 2

OS:StandardsInformation:Construction,
  {991a48bc-004a-49ce-9958-eccc9d8f2ac8}, !- Handle
  {a5b13a1d-1a7c-483d-b4b2-7c798aa329ab}, !- Construction Name
  ExteriorRoof,                           !- Intended Surface Type
  Metal;                                  !- Standards Construction Type

OS:Material,
  {a6336191-9c21-46b1-8ae5-b7a85cf937f0}, !- Handle
  Roof Insulation [25],                   !- Name
  MediumRough,                            !- Roughness
  0.263,                                  !- Thickness {m}
  0.049,                                  !- Conductivity {W/m-K}
  265,                                    !- Density {kg/m3}
  836.800000000001,                       !- Specific Heat {J/kg-K}
  0.9,                                    !- Thermal Absorptance
  0.7,                                    !- Solar Absorptance
  0.7;                                    !- Visible Absorptance

OS:Construction,
  {fb716502-0b91-465d-8d13-f21e8b930109}, !- Handle
  ASHRAE 189.1-2009 ExtRoof Metal ClimateZone 7-8, !- Name
  ,                                       !- Surface Rendering Name
  {fc60cb8a-219b-4a9e-87f9-c94ff0ab0d0d}, !- Layer 1
  {62269b36-b900-4533-878c-7e2ec5240c2e}; !- Layer 2

OS:StandardsInformation:Construction,
  {412dfc02-b877-412f-a39b-e37e4b4858cc}, !- Handle
  {fb716502-0b91-465d-8d13-f21e8b930109}, !- Construction Name
  ExteriorRoof,                           !- Intended Surface Type
  Metal;                                  !- Standards Construction Type

OS:Material,
  {62269b36-b900-4533-878c-7e2ec5240c2e}, !- Handle
  Roof Insulation [27],                   !- Name
  MediumRough,                            !- Roughness
  0.297000000000001,                      !- Thickness {m}
  0.049,                                  !- Conductivity {W/m-K}
  265,                                    !- Density {kg/m3}
  836.800000000001,                       !- Specific Heat {J/kg-K}
  0.9,                                    !- Thermal Absorptance
  0.7,                                    !- Solar Absorptance
  0.7;                                    !- Visible Absorptance

OS:Construction,
  {2e244864-4723-4f2b-91c8-65541e92437d}, !- Handle
  ASHRAE 189.1-2009 ExtWall Mass ClimateZone 1, !- Name
  ,                                       !- Surface Rendering Name
  {8384f79c-e653-444c-b57b-4b020183df6f}, !- Layer 1
  {aa1ec867-7dd1-43ba-bf3a-11f43c0bb43a}, !- Layer 2
  {a10c3aa8-1e58-4717-a187-f9ff17ccf831}, !- Layer 3
  {1974d069-0a0f-4b10-a35a-fdb1ae9446ce}; !- Layer 4

OS:StandardsInformation:Construction,
  {637634a3-f712-427a-a89d-1e272426f4aa}, !- Handle
  {2e244864-4723-4f2b-91c8-65541e92437d}, !- Construction Name
  ExteriorWall,                           !- Intended Surface Type
  Mass;                                   !- Standards Construction Type

OS:Material,
  {8384f79c-e653-444c-b57b-4b020183df6f}, !- Handle
  1IN Stucco,                             !- Name
  Smooth,                                 !- Roughness
  0.0253,                                 !- Thickness {m}
  0.691799999999999,                      !- Conductivity {W/m-K}
  1858,                                   !- Density {kg/m3}
  836.999999999999,                       !- Specific Heat {J/kg-K}
  0.9,                                    !- Thermal Absorptance
  0.92,                                   !- Solar Absorptance
  0.92;                                   !- Visible Absorptance

OS:Material,
  {aa1ec867-7dd1-43ba-bf3a-11f43c0bb43a}, !- Handle
  8IN Concrete HW,                        !- Name
  MediumRough,                            !- Roughness
  0.2033,                                 !- Thickness {m}
  1.72959999999999,                       !- Conductivity {W/m-K}
  2242.99999999999,                       !- Density {kg/m3}
  836.999999999999,                       !- Specific Heat {J/kg-K}
  0.9,                                    !- Thermal Absorptance
  0.65,                                   !- Solar Absorptance
  0.65;                                   !- Visible Absorptance

OS:Material,
  {a10c3aa8-1e58-4717-a187-f9ff17ccf831}, !- Handle
  Wall Insulation [31],                   !- Name
  MediumRough,                            !- Roughness
  0.0337000000000001,                     !- Thickness {m}
  0.0432,                                 !- Conductivity {W/m-K}
  91,                                     !- Density {kg/m3}
  836.999999999999,                       !- Specific Heat {J/kg-K}
  0.9,                                    !- Thermal Absorptance
  0.5,                                    !- Solar Absorptance
  0.5;                                    !- Visible Absorptance

OS:Construction,
  {74ee27a1-a396-414a-9145-11d02656c683}, !- Handle
  ASHRAE 189.1-2009 ExtWall Mass ClimateZone 2, !- Name
  ,                                       !- Surface Rendering Name
  {8384f79c-e653-444c-b57b-4b020183df6f}, !- Layer 1
  {aa1ec867-7dd1-43ba-bf3a-11f43c0bb43a}, !- Layer 2
  {0f196196-fd5a-4050-a77e-e0c2d909138d}, !- Layer 3
  {1974d069-0a0f-4b10-a35a-fdb1ae9446ce}; !- Layer 4

OS:StandardsInformation:Construction,
  {1c656395-10e5-42bb-87d1-3133556c8490}, !- Handle
  {74ee27a1-a396-414a-9145-11d02656c683}, !- Construction Name
  ExteriorWall,                           !- Intended Surface Type
  Mass;                                   !- Standards Construction Type

OS:Material,
  {0f196196-fd5a-4050-a77e-e0c2d909138d}, !- Handle
  Wall Insulation [35],                   !- Name
  MediumRough,                            !- Roughness
  0.0452,                                 !- Thickness {m}
  0.0432,                                 !- Conductivity {W/m-K}
  91,                                     !- Density {kg/m3}
  836.999999999999,                       !- Specific Heat {J/kg-K}
  0.9,                                    !- Thermal Absorptance
  0.5,                                    !- Solar Absorptance
  0.5;                                    !- Visible Absorptance

OS:Construction,
  {e61e2645-e3ac-48ec-8c3c-547cb7008e6e}, !- Handle
  ASHRAE 189.1-2009 ExtWall Mass ClimateZone 3, !- Name
  ,                                       !- Surface Rendering Name
  {8384f79c-e653-444c-b57b-4b020183df6f}, !- Layer 1
  {aa1ec867-7dd1-43ba-bf3a-11f43c0bb43a}, !- Layer 2
  {5be4070d-d93c-4a31-bef5-f7e168e461b1}, !- Layer 3
  {1974d069-0a0f-4b10-a35a-fdb1ae9446ce}; !- Layer 4

OS:StandardsInformation:Construction,
  {8e1f5bc0-65c6-46f2-92a1-1c0ec07409ca}, !- Handle
  {e61e2645-e3ac-48ec-8c3c-547cb7008e6e}, !- Construction Name
  ExteriorWall,                           !- Intended Surface Type
  Mass;                                   !- Standards Construction Type

OS:Material,
  {5be4070d-d93c-4a31-bef5-f7e168e461b1}, !- Handle
  Wall Insulation [36],                   !- Name
  MediumRough,                            !- Roughness
  0.0565999999999999,                     !- Thickness {m}
  0.0432,                                 !- Conductivity {W/m-K}
  91,                                     !- Density {kg/m3}
  836.999999999999,                       !- Specific Heat {J/kg-K}
  0.9,                                    !- Thermal Absorptance
  0.5,                                    !- Solar Absorptance
  0.5;                                    !- Visible Absorptance

OS:Construction,
  {af18f41a-5859-4caa-a0f2-fdd2e3b1d2f2}, !- Handle
  ASHRAE 189.1-2009 ExtWall Mass ClimateZone 4, !- Name
  ,                                       !- Surface Rendering Name
  {8384f79c-e653-444c-b57b-4b020183df6f}, !- Layer 1
  {aa1ec867-7dd1-43ba-bf3a-11f43c0bb43a}, !- Layer 2
  {59d8e106-7511-4bc4-aaba-d673ce59d1b0}, !- Layer 3
  {1974d069-0a0f-4b10-a35a-fdb1ae9446ce}; !- Layer 4

OS:StandardsInformation:Construction,
  {34a2bab9-00a8-4abe-b018-561753559007}, !- Handle
  {af18f41a-5859-4caa-a0f2-fdd2e3b1d2f2}, !- Construction Name
  ExteriorWall,                           !- Intended Surface Type
  Mass;                                   !- Standards Construction Type

OS:Material,
  {59d8e106-7511-4bc4-aaba-d673ce59d1b0}, !- Handle
  Wall Insulation [37],                   !- Name
  MediumRough,                            !- Roughness
  0.0680999999999999,                     !- Thickness {m}
  0.0432,                                 !- Conductivity {W/m-K}
  91,                                     !- Density {kg/m3}
  836.999999999999,                       !- Specific Heat {J/kg-K}
  0.9,                                    !- Thermal Absorptance
  0.5,                                    !- Solar Absorptance
  0.5;                                    !- Visible Absorptance

OS:Construction,
  {3775193a-2766-4d41-b93e-1a9ad7885202}, !- Handle
  ASHRAE 189.1-2009 ExtWall Mass ClimateZone 5, !- Name
  ,                                       !- Surface Rendering Name
  {8384f79c-e653-444c-b57b-4b020183df6f}, !- Layer 1
  {aa1ec867-7dd1-43ba-bf3a-11f43c0bb43a}, !- Layer 2
  {cbb5bf8b-45d0-4e63-b2c4-2a0f21220b78}, !- Layer 3
  {1974d069-0a0f-4b10-a35a-fdb1ae9446ce}; !- Layer 4

OS:StandardsInformation:Construction,
  {aa0ee862-abd9-480f-b060-d0318638cf45}, !- Handle
  {3775193a-2766-4d41-b93e-1a9ad7885202}, !- Construction Name
  ExteriorWall,                           !- Intended Surface Type
  Mass;                                   !- Standards Construction Type

OS:Material,
  {cbb5bf8b-45d0-4e63-b2c4-2a0f21220b78}, !- Handle
  Wall Insulation [40],                   !- Name
  MediumRough,                            !- Roughness
  0.0793999999999999,                     !- Thickness {m}
  0.0432,                                 !- Conductivity {W/m-K}
  91,                                     !- Density {kg/m3}
  836.999999999999,                       !- Specific Heat {J/kg-K}
  0.9,                                    !- Thermal Absorptance
  0.5,                                    !- Solar Absorptance
  0.5;                                    !- Visible Absorptance

OS:Construction,
  {fd975701-2a21-4be9-896d-db0fef421bbf}, !- Handle
  ASHRAE 189.1-2009 ExtWall Mass ClimateZone 6, !- Name
  ,                                       !- Surface Rendering Name
  {8384f79c-e653-444c-b57b-4b020183df6f}, !- Layer 1
  {aa1ec867-7dd1-43ba-bf3a-11f43c0bb43a}, !- Layer 2
  {93e21492-fae4-4138-bb8b-1373b21e1f19}, !- Layer 3
  {1974d069-0a0f-4b10-a35a-fdb1ae9446ce}; !- Layer 4

OS:StandardsInformation:Construction,
  {bfcf209b-2e02-44a6-b59b-eae84b0255e3}, !- Handle
  {fd975701-2a21-4be9-896d-db0fef421bbf}, !- Construction Name
  ExteriorWall,                           !- Intended Surface Type
  Mass;                                   !- Standards Construction Type

OS:Material,
  {93e21492-fae4-4138-bb8b-1373b21e1f19}, !- Handle
  Wall Insulation [42],                   !- Name
  MediumRough,                            !- Roughness
  0.0913999999999999,                     !- Thickness {m}
  0.0432,                                 !- Conductivity {W/m-K}
  91,                                     !- Density {kg/m3}
  836.999999999999,                       !- Specific Heat {J/kg-K}
  0.9,                                    !- Thermal Absorptance
  0.5,                                    !- Solar Absorptance
  0.5;                                    !- Visible Absorptance

OS:Construction,
  {88baf3e6-1471-49f1-92b0-3f59b086b9a2}, !- Handle
  ASHRAE 189.1-2009 ExtWall Mass ClimateZone 7-8, !- Name
  ,                                       !- Surface Rendering Name
  {8384f79c-e653-444c-b57b-4b020183df6f}, !- Layer 1
  {aa1ec867-7dd1-43ba-bf3a-11f43c0bb43a}, !- Layer 2
  {6123ccf8-4a08-49c0-b83d-388211298566}, !- Layer 3
  {1974d069-0a0f-4b10-a35a-fdb1ae9446ce}; !- Layer 4

OS:StandardsInformation:Construction,
  {62c928e9-e8f3-4a7e-abed-b527754377d6}, !- Handle
  {88baf3e6-1471-49f1-92b0-3f59b086b9a2}, !- Construction Name
  ExteriorWall,                           !- Intended Surface Type
  Mass;                                   !- Standards Construction Type

OS:Material,
  {6123ccf8-4a08-49c0-b83d-388211298566}, !- Handle
  Wall Insulation [44],                   !- Name
  MediumRough,                            !- Roughness
  0.1104,                                 !- Thickness {m}
  0.0432,                                 !- Conductivity {W/m-K}
  91,                                     !- Density {kg/m3}
  836.999999999999,                       !- Specific Heat {J/kg-K}
  0.9,                                    !- Thermal Absorptance
  0.5,                                    !- Solar Absorptance
  0.5;                                    !- Visible Absorptance

OS:Construction,
  {79571f08-c941-4d55-b10a-12ffd2f11752}, !- Handle
  ASHRAE 189.1-2009 ExtWall Mass ClimateZone alt-res 1, !- Name
  ,                                       !- Surface Rendering Name
  {8384f79c-e653-444c-b57b-4b020183df6f}, !- Layer 1
  {aa1ec867-7dd1-43ba-bf3a-11f43c0bb43a}, !- Layer 2
  {0f196196-fd5a-4050-a77e-e0c2d909138d}, !- Layer 3
  {1974d069-0a0f-4b10-a35a-fdb1ae9446ce}; !- Layer 4

OS:StandardsInformation:Construction,
  {af42e1d7-d5f1-4745-90cf-1999e79332bd}, !- Handle
  {79571f08-c941-4d55-b10a-12ffd2f11752}, !- Construction Name
  ExteriorWall,                           !- Intended Surface Type
  Mass;                                   !- Standards Construction Type

OS:Construction,
  {a6267c44-321b-4df9-9d3f-02b3f8661861}, !- Handle
  ASHRAE 189.1-2009 ExtWall Mass ClimateZone alt-res 2, !- Name
  ,                                       !- Surface Rendering Name
  {8384f79c-e653-444c-b57b-4b020183df6f}, !- Layer 1
  {aa1ec867-7dd1-43ba-bf3a-11f43c0bb43a}, !- Layer 2
  {5be4070d-d93c-4a31-bef5-f7e168e461b1}, !- Layer 3
  {1974d069-0a0f-4b10-a35a-fdb1ae9446ce}; !- Layer 4

OS:StandardsInformation:Construction,
  {bb430232-c3d4-4dd7-8da5-d4988cdefe36}, !- Handle
  {a6267c44-321b-4df9-9d3f-02b3f8661861}, !- Construction Name
  ExteriorWall,                           !- Intended Surface Type
  Mass;                                   !- Standards Construction Type

OS:Construction,
  {b89cdbe2-4f0d-45a4-a3e0-46962d4776d2}, !- Handle
  ASHRAE 189.1-2009 ExtWall Mass ClimateZone alt-res 3, !- Name
  ,                                       !- Surface Rendering Name
  {8384f79c-e653-444c-b57b-4b020183df6f}, !- Layer 1
  {aa1ec867-7dd1-43ba-bf3a-11f43c0bb43a}, !- Layer 2
  {59d8e106-7511-4bc4-aaba-d673ce59d1b0}, !- Layer 3
  {1974d069-0a0f-4b10-a35a-fdb1ae9446ce}; !- Layer 4

OS:StandardsInformation:Construction,
  {47837ef5-7ffb-4c71-82d2-4018015b5c54}, !- Handle
  {b89cdbe2-4f0d-45a4-a3e0-46962d4776d2}, !- Construction Name
  ExteriorWall,                           !- Intended Surface Type
  Mass;                                   !- Standards Construction Type

OS:Construction,
  {5945e566-d0fc-4230-a216-12967ce5195d}, !- Handle
  ASHRAE 189.1-2009 ExtWall Mass ClimateZone alt-res 4, !- Name
  ,                                       !- Surface Rendering Name
  {8384f79c-e653-444c-b57b-4b020183df6f}, !- Layer 1
  {aa1ec867-7dd1-43ba-bf3a-11f43c0bb43a}, !- Layer 2
  {cbb5bf8b-45d0-4e63-b2c4-2a0f21220b78}, !- Layer 3
  {1974d069-0a0f-4b10-a35a-fdb1ae9446ce}; !- Layer 4

OS:StandardsInformation:Construction,
  {4da33a63-bd42-412d-b5a5-7bc848910a3d}, !- Handle
  {5945e566-d0fc-4230-a216-12967ce5195d}, !- Construction Name
  ExteriorWall,                           !- Intended Surface Type
  Mass;                                   !- Standards Construction Type

OS:Construction,
  {74807a77-c379-472a-8451-e592c9cd232a}, !- Handle
  ASHRAE 189.1-2009 ExtWall Mass ClimateZone alt-res 5, !- Name
  ,                                       !- Surface Rendering Name
  {8384f79c-e653-444c-b57b-4b020183df6f}, !- Layer 1
  {aa1ec867-7dd1-43ba-bf3a-11f43c0bb43a}, !- Layer 2
  {93e21492-fae4-4138-bb8b-1373b21e1f19}, !- Layer 3
  {1974d069-0a0f-4b10-a35a-fdb1ae9446ce}; !- Layer 4

OS:StandardsInformation:Construction,
  {6808cd39-cbdb-4d1c-96e9-a92a2357db93}, !- Handle
  {74807a77-c379-472a-8451-e592c9cd232a}, !- Construction Name
  ExteriorWall,                           !- Intended Surface Type
  Mass;                                   !- Standards Construction Type

OS:Construction,
  {f1322022-c7e7-4cba-967e-9de24358efd8}, !- Handle
  ASHRAE 189.1-2009 ExtWall Mass ClimateZone alt-res 6, !- Name
  ,                                       !- Surface Rendering Name
  {8384f79c-e653-444c-b57b-4b020183df6f}, !- Layer 1
  {aa1ec867-7dd1-43ba-bf3a-11f43c0bb43a}, !- Layer 2
  {6123ccf8-4a08-49c0-b83d-388211298566}, !- Layer 3
  {1974d069-0a0f-4b10-a35a-fdb1ae9446ce}; !- Layer 4

OS:StandardsInformation:Construction,
  {558abcab-2136-4553-86b2-1f48149a33d5}, !- Handle
  {f1322022-c7e7-4cba-967e-9de24358efd8}, !- Construction Name
  ExteriorWall,                           !- Intended Surface Type
  Mass;                                   !- Standards Construction Type

OS:Construction,
  {9cf55f16-757f-4316-983c-b2889f923660}, !- Handle
  ASHRAE 189.1-2009 ExtWall Mass ClimateZone alt-res 7, !- Name
  ,                                       !- Surface Rendering Name
  {8384f79c-e653-444c-b57b-4b020183df6f}, !- Layer 1
  {aa1ec867-7dd1-43ba-bf3a-11f43c0bb43a}, !- Layer 2
  {6123ccf8-4a08-49c0-b83d-388211298566}, !- Layer 3
  {1974d069-0a0f-4b10-a35a-fdb1ae9446ce}; !- Layer 4

OS:StandardsInformation:Construction,
  {ae91190b-ace8-40e2-b692-cab0eca37520}, !- Handle
  {9cf55f16-757f-4316-983c-b2889f923660}, !- Construction Name
  ExteriorWall,                           !- Intended Surface Type
  Mass;                                   !- Standards Construction Type

OS:Construction,
  {a50756e9-d277-421b-bea7-481e5c14dc4b}, !- Handle
  ASHRAE 189.1-2009 ExtWall Mass ClimateZone alt-res 8, !- Name