
OS:Version,
  {c654438a-7015-4405-a4e6-31704fb54b87}, !- Handle
  0.11.5;                                 !- Version Identifier

OS:Schedule:Constant,
  {9ae3a47f-cb8e-47d4-bf20-86b7f16e86a2}, !- Handle
  Always On Discrete,                     !- Name
  {dc7f21a1-a1cd-4441-9cd2-5ee5333cf4d3}, !- Schedule Type Limits Name
  1;                                      !- Value

OS:ScheduleTypeLimits,
  {dc7f21a1-a1cd-4441-9cd2-5ee5333cf4d3}, !- Handle
  Always On Discrete Limits,              !- Name
  0,                                      !- Lower Limit Value {BasedOnField A4}
  1,                                      !- Upper Limit Value {BasedOnField A4}
  Discrete,                               !- Numeric Type
  Availability;                           !- Unit Type

OS:Building,
  {684e3a71-e9bd-4547-96f1-ff699f809866}, ! Handle
  Large Office,                           ! Name
  ,                                       ! Building Type
  -0,                                     ! North Axis
  ,                                       ! Nominal Floor to Floor Height
  {359fb575-9f9e-4c86-8db0-b5c4667dd2bf}, ! Space Type Name
  {f66bdfa1-7a00-4ca3-ba90-0b1a3a4c6111}, ! Default Construction Set Name
  ;                                       ! Default Schedule Set Name

OS:Construction,
  {3d13c64e-fd07-4335-aa45-c527ba127cde}, ! Handle
  000 AtticRoof ClimateZone 1-8,          ! Name
  {4302f1f7-59d7-4d49-8f03-880d5351eca4}, ! Surface Rendering Name
  {287f4923-83c0-45ad-96fb-2025616216b3}, ! Layer 1
  {25aa6d7a-edbf-4687-a6b8-1cf632ffc0a4}; ! Layer 2

OS:Construction,
  {e206caf0-ac68-4d0f-916f-3248c0af8fc4}, ! Handle
  000 ExtSlabCarpet 4in ClimateZone 1-8,  ! Name
  {652c0ff3-6f38-4d3c-a431-4be7383e8005}, ! Surface Rendering Name
  {b1460b6a-9c87-482b-8a13-f9bf23e9b46c}, ! Layer 1
  {91abb326-371f-42a1-812b-92c64fb2ff30}; ! Layer 2

OS:Construction,
  {8a650308-c97d-41a1-b9a4-297e89825471}, ! Handle
  000 ExtSlabCarpet 8in ClimateZone 1-8,  ! Name
  {aa232e42-b7cd-4a2e-aa61-5611968f7ad8}, ! Surface Rendering Name
  {35aaac6e-c056-4114-b78e-98732f7c6679}, ! Layer 1
  {91abb326-371f-42a1-812b-92c64fb2ff30}; ! Layer 2

OS:Construction,
  {b56e46a3-4401-40cd-aa0b-cfccdce2fc30}, ! Handle
  000 ExtSlab 4in ClimateZone 1-8,        ! Name
  {1a1cff80-3a94-4bd4-ac0c-21d992a75155}, ! Surface Rendering Name
  {b1460b6a-9c87-482b-8a13-f9bf23e9b46c}; ! Layer 1

OS:Construction,
  {442e936d-adbc-4e9b-8f83-1380b59897f5}, ! Handle
  000 ExtSlab 8in ClimateZone 1-8,        ! Name
  {d9907969-3dc4-4aca-994b-56b6e00d66fa}, ! Surface Rendering Name
  {35aaac6e-c056-4114-b78e-98732f7c6679}; ! Layer 1

OS:Construction,
  {b1eb47c0-9149-442b-938c-becdd3d2d6ed}, ! Handle
  000 Exterior Door,                      ! Name
  {7328a6bd-46f2-47fa-8fa6-7835ece74cf1}, ! Surface Rendering Name
  {335ec9c2-cecc-44c4-8c05-1a107a2f942b}, ! Layer 1
  {7cccd229-890e-4c70-bfa4-20eafc7311ce}; ! Layer 2

OS:Construction,
  {5d68f83f-559b-4bf8-945d-8875ee243286}, ! Handle
  000 Exterior Floor,                     ! Name
  {10a989e2-1363-4122-b049-fa4de2d09322}, ! Surface Rendering Name
  {23ed9616-fd6b-4ee2-bfea-e0d6c01fd367}, ! Layer 1
  {4defe951-fc56-4774-8093-c0df1c09bdaf}; ! Layer 2

OS:Construction,
  {f7f5170f-9b58-4352-9dca-872be3ebd81f}, ! Handle
  000 Exterior Roof,                      ! Name
  {37411ec4-32da-42ab-93d2-672626a61d38}, ! Surface Rendering Name
  {fb7d20e4-c43b-4a4c-bf37-5d2cd774f78c}, ! Layer 1
  {7ad8296f-0198-446f-8df0-e6a48cb6e016}, ! Layer 2
  {105f6e89-0d5c-43c5-8efc-2cdfcb723c6b}; ! Layer 3

OS:Construction,
  {2280ce44-b9f1-4ed3-bb73-b1e0575e9b56}, ! Handle
  000 Exterior Wall,                      ! Name
  {59835ec9-d8fa-496f-83d5-2eab402f03f5}, ! Surface Rendering Name
  {e3bd31cc-307d-49fd-b638-8425628db0e3}, ! Layer 1
  {4defe951-fc56-4774-8093-c0df1c09bdaf}, ! Layer 2
  {23ed9616-fd6b-4ee2-bfea-e0d6c01fd367}, ! Layer 3
  {01d296b2-10a0-4b20-a410-5189362f2d25}, ! Layer 4
  {2687f52b-737d-4939-9eef-f8385fe5df34}; ! Layer 5

OS:Construction,
  {4e722e00-797e-4faf-80e8-317a73614b9e}, ! Handle
  000 Exterior Window,                    ! Name
  {f283a42d-2ed3-4402-8246-2ad8cdda5926}, ! Surface Rendering Name
  {f12332ac-77d8-4092-8926-4bd9450be68f}, ! Layer 1
  {ea793df0-776e-419a-bb53-6c7d8ca93495}, ! Layer 2
  {f12332ac-77d8-4092-8926-4bd9450be68f}; ! Layer 3

OS:Construction,
  {0e07c9db-d7fc-4671-818c-4c5d19b79416}, ! Handle
  000 Interior Ceiling,                   ! Name
  {49b5f880-f1f3-46e0-a18a-64fd1f07907e}, ! Surface Rendering Name
  {fb7d20e4-c43b-4a4c-bf37-5d2cd774f78c}, ! Layer 1
  {7ad8296f-0198-446f-8df0-e6a48cb6e016}, ! Layer 2
  {105f6e89-0d5c-43c5-8efc-2cdfcb723c6b}; ! Layer 3

OS:Construction,
  {39b8761a-8e47-4608-ad3a-38a4555cfc2d}, ! Handle
  000 Interior Door,                      ! Name
  {f62ebda8-941d-4f56-8ad5-c641b22405a1}, ! Surface Rendering Name
  {6c393407-df2f-4317-a143-eafee7773de1}; ! Layer 1

OS:Construction,
  {967fa89d-c099-4129-be7b-349e64d17d77}, ! Handle
  000 Interior Floor,                     ! Name
  {60d92541-eeee-4adf-a09a-21b3935be35e}, ! Surface Rendering Name
  {105f6e89-0d5c-43c5-8efc-2cdfcb723c6b}, ! Layer 1
  {7ad8296f-0198-446f-8df0-e6a48cb6e016}, ! Layer 2
  {fb7d20e4-c43b-4a4c-bf37-5d2cd774f78c}; ! Layer 3

OS:Construction,
  {06ab75d2-644c-4c3b-8ed4-2de0f1c79648}, ! Handle
  000 Interior Partition,                 ! Name
  {efbf700b-6058-4b31-b671-eee939d6e4fd}, ! Surface Rendering Name
  {6c393407-df2f-4317-a143-eafee7773de1}; ! Layer 1

OS:Construction,
  {9062d9e1-7f34-4cea-8172-fca97078d840}, ! Handle
  000 Interior Wall,                      ! Name
  {83e446b5-9184-4250-a48c-040a0d254a6f}, ! Surface Rendering Name
  {2687f52b-737d-4939-9eef-f8385fe5df34}, ! Layer 1
  {01d296b2-10a0-4b20-a410-5189362f2d25}, ! Layer 2
  {2687f52b-737d-4939-9eef-f8385fe5df34}; ! Layer 3

OS:Construction,
  {1673f6e3-b916-4981-9939-663733db47bf}, ! Handle
  000 Interior Window,                    ! Name
  {653b0251-117e-4140-8cee-717503cc2328}, ! Surface Rendering Name
  {f12332ac-77d8-4092-8926-4bd9450be68f}; ! Layer 1

OS:Construction,
  {91f92ac6-ee23-4386-ba65-cd6ffb1eae05}, ! Handle
  ASHRAE 189.1-2009 AtticFloor ClimateZone 1-8, ! Name
  {53bf6c2f-527f-4a13-99a2-98faf97df32a}, ! Surface Rendering Name
  {d0bcdec4-4897-4980-a6ac-f1dbf3b08e82}, ! Layer 1
  {64292d60-a6c9-492c-8b72-137f3d2f720e}, ! Layer 2
  {d0bcdec4-4897-4980-a6ac-f1dbf3b08e82}; ! Layer 3

OS:Construction,
  {806fa038-b2eb-4c91-98f3-c336206da9a8}, ! Handle
  ASHRAE 189.1-2009 ExtRoof IEAD ClimateZone 1, ! Name
  {d69b76a0-4004-42f6-80e5-f90d596a6e4a}, ! Surface Rendering Name
  {287f4923-83c0-45ad-96fb-2025616216b3}, ! Layer 1
  {6d837d07-7033-4dff-9e55-7da3fadb95c1}, ! Layer 2
  {25aa6d7a-edbf-4687-a6b8-1cf632ffc0a4}; ! Layer 3

OS:Construction,
  {190a2aa1-0ed6-4859-aae3-186e7427e247}, ! Handle
  ASHRAE 189.1-2009 ExtRoof IEAD ClimateZone 2-5, ! Name
  {74ac05d3-9c52-4b5c-8b0b-f2b45bcb543d}, ! Surface Rendering Name
  {287f4923-83c0-45ad-96fb-2025616216b3}, ! Layer 1
  {d41d2681-9368-4c03-a24c-107a9142eb75}, ! Layer 2
  {25aa6d7a-edbf-4687-a6b8-1cf632ffc0a4}; ! Layer 3

OS:Construction,
  {4ea1d8c2-a778-4a00-a13e-2204a6e20db0}, ! Handle
  ASHRAE 189.1-2009 ExtRoof IEAD ClimateZone 6, ! Name
  {67ad625e-2923-48aa-a05a-57ef0b62414d}, ! Surface Rendering Name
  {287f4923-83c0-45ad-96fb-2025616216b3}, ! Layer 1
  {57b0312b-30c3-4d3e-b70b-351d403db26d}, ! Layer 2
  {25aa6d7a-edbf-4687-a6b8-1cf632ffc0a4}; ! Layer 3

OS:Construction,
  {12201718-ee19-4608-91ad-a79d1aed48f8}, ! Handle
  ASHRAE 189.1-2009 ExtRoof IEAD ClimateZone 7-8, ! Name
  {5c90e255-40fb-430f-b0a4-73e2c34ea982}, ! Surface Rendering Name
  {287f4923-83c0-45ad-96fb-2025616216b3}, ! Layer 1
  {bb224e99-7ed0-49e7-a1fd-e2a69d8283b5}, ! Layer 2
  {25aa6d7a-edbf-4687-a6b8-1cf632ffc0a4}; ! Layer 3

OS:Construction,
  {0aea0b77-b072-4609-8ca3-f539a4c1b471}, ! Handle
  ASHRAE 189.1-2009 ExtRoof Metal ClimateZone 1, ! Name
  {0192eab2-3d85-42f9-95c2-31ac9dfe005e}, ! Surface Rendering Name
  {5bd16312-d050-4d10-8f23-d6b6b25cb443}, ! Layer 1
  {c288ac00-084d-4762-91e9-8e5f590a8401}; ! Layer 2

OS:Construction,
  {d7242e62-8482-4a99-b402-20f99cc3d513}, ! Handle
  ASHRAE 189.1-2009 ExtRoof Metal ClimateZone 2-5, ! Name
  {7d00ccdd-fc83-4331-a3e5-23ba8f1e7322}, ! Surface Rendering Name
  {5bd16312-d050-4d10-8f23-d6b6b25cb443}, ! Layer 1
  {f84ab172-2924-46b6-97aa-f6e46aabc67f}; ! Layer 2

OS:Construction,
  {5395637c-654d-458e-b35d-cbf3aa6bcad5}, ! Handle
  ASHRAE 189.1-2009 ExtRoof Metal ClimateZone 6, ! Name
  {8e67f69d-40a7-4b58-9cb2-9f373b6a2f71}, ! Surface Rendering Name
  {5bd16312-d050-4d10-8f23-d6b6b25cb443}, ! Layer 1
  {02b4a3d6-1c19-4219-b618-ceef5192240b}; ! Layer 2

OS:Construction,
  {6d588a87-06a6-4ec2-a43b-fb9bf45130a4}, ! Handle
  ASHRAE 189.1-2009 ExtRoof Metal ClimateZone 7-8, ! Name
  {085b7915-c4fa-4d86-a9bd-c94483e051ac}, ! Surface Rendering Name
  {5bd16312-d050-4d10-8f23-d6b6b25cb443}, ! Layer 1
  {a0e839d6-1b85-4761-ac4f-4f4b8aec0616}; ! Layer 2

OS:Construction,
  {338c8ba5-4c48-4c5b-9305-841c0f2b17cc}, ! Handle
  ASHRAE 189.1-2009 ExtWall Mass ClimateZone 1, ! Name
  {b39a1658-7a46-4c83-973b-339de1c7e8bf}, ! Surface Rendering Name
  {876daf02-9ba1-427c-8fd6-d0480511d9b1}, ! Layer 1
  {b01e1a8d-a9b6-4be8-980b-0b756f29d652}, ! Layer 2
  {1e2b2def-1c8a-447e-8783-0d7033e3ee51}, ! Layer 3
  {d0bcdec4-4897-4980-a6ac-f1dbf3b08e82}; ! Layer 4

OS:Construction,
  {7cae3e63-928c-4fb1-9497-598f98d244c0}, ! Handle
  ASHRAE 189.1-2009 ExtWall Mass ClimateZone 2, ! Name
  {edfc4df9-ec33-40ea-a3c4-911e023d0782}, ! Surface Rendering Name
  {876daf02-9ba1-427c-8fd6-d0480511d9b1}, ! Layer 1
  {b01e1a8d-a9b6-4be8-980b-0b756f29d652}, ! Layer 2
  {02820087-e559-4054-8f3e-a9947da3b086}, ! Layer 3
  {d0bcdec4-4897-4980-a6ac-f1dbf3b08e82}; ! Layer 4

OS:Construction,
  {a14a6436-d08b-4441-a56b-91c1ac9678d3}, ! Handle
  ASHRAE 189.1-2009 ExtWall Mass ClimateZone 3, ! Name
  {e625be6d-9527-4530-89d8-21783862645d}, ! Surface Rendering Name
  {876daf02-9ba1-427c-8fd6-d0480511d9b1}, ! Layer 1
  {b01e1a8d-a9b6-4be8-980b-0b756f29d652}, ! Layer 2
  {bb53f21c-22f9-4394-973a-f1fc2b78cce2}, ! Layer 3
  {d0bcdec4-4897-4980-a6ac-f1dbf3b08e82}; ! Layer 4

OS:Construction,
  {174921e3-88c9-4a55-a474-f3e2fa41575a}, ! Handle
  ASHRAE 189.1-2009 ExtWall Mass ClimateZone 4, ! Name
  {2db47720-fe66-415e-aa3b-970bc3bab436}, ! Surface Rendering Name
  {876daf02-9ba1-427c-8fd6-d0480511d9b1}, ! Layer 1
  {b01e1a8d-a9b6-4be8-980b-0b756f29d652}, ! Layer 2
  {92e57e0f-ff94-4c69-a64e-9ef0949e3dc3}, ! Layer 3
  {d0bcdec4-4897-4980-a6ac-f1dbf3b08e82}; ! Layer 4

OS:Construction,
  {97e25df3-0990-4d93-8d1c-3a6138f8ecae}, ! Handle
  ASHRAE 189.1-2009 ExtWall Mass ClimateZone 5, ! Name
  {4058fd5b-292f-4aa0-a96b-3d9d08631fa5}, ! Surface Rendering Name
  {876daf02-9ba1-427c-8fd6-d0480511d9b1}, ! Layer 1
  {b01e1a8d-a9b6-4be8-980b-0b756f29d652}, ! Layer 2
  {b7f14c88-bb2c-4d00-85a7-99fc1e2b8033}, ! Layer 3
  {d0bcdec4-4897-4980-a6ac-f1dbf3b08e82}; ! Layer 4

OS:Construction,
  {0d6a29e1-7239-4a14-965e-c168b325cafa}, ! Handle
  ASHRAE 189.1-2009 ExtWall Mass ClimateZone 6, ! Name
  {fbfac24b-8e4b-4aae-936c-83738d170164}, ! Surface Rendering Name
  {876daf02-9ba1-427c-8fd6-d0480511d9b1}, ! Layer 1
  {b01e1a8d-a9b6-4be8-980b-0b756f29d652}, ! Layer 2
  {6b8ca1d2-f3af-4d5a-888a-fffc97f3a1f7}, ! Layer 3
  {d0bcdec4-4897-4980-a6ac-f1dbf3b08e82}; ! Layer 4

OS:Construction,
  {d871ae56-9869-44f9-b04f-ff7260b50e7c}, ! Handle
  ASHRAE 189.1-2009 ExtWall Mass ClimateZone 7-8, ! Name
  {54017497-0538-4162-8209-a26bfb3d43d4}, ! Surface Rendering Name
  {876daf02-9ba1-427c-8fd6-d0480511d9b1}, ! Layer 1
  {b01e1a8d-a9b6-4be8-980b-0b756f29d652}, ! Layer 2
  {bd108f84-21f5-4369-8eb1-f038ce37dcd6}, ! Layer 3
  {d0bcdec4-4897-4980-a6ac-f1dbf3b08e82}; ! Layer 4

OS:Construction,
  {b9ccd3c4-9b6b-466b-b38a-6f2ff8230b58}, ! Handle
  ASHRAE 189.1-2009 ExtWall Mass ClimateZone alt-res 1, ! Name
  {b828ef22-8c6f-4c5d-95c2-db566b0c09b8}, ! Surface Rendering Name
  {876daf02-9ba1-427c-8fd6-d0480511d9b1}, ! Layer 1
  {b01e1a8d-a9b6-4be8-980b-0b756f29d652}, ! Layer 2
  {02820087-e559-4054-8f3e-a9947da3b086}, ! Layer 3
  {d0bcdec4-4897-4980-a6ac-f1dbf3b08e82}; ! Layer 4

OS:Construction,
  {46e6fbf9-bea7-457d-a319-33ce80a121f1}, ! Handle
  ASHRAE 189.1-2009 ExtWall Mass ClimateZone alt-res 2, ! Name
  {2dbb6b55-1c62-407e-9934-942110b11391}, ! Surface Rendering Name
  {876daf02-9ba1-427c-8fd6-d0480511d9b1}, ! Layer 1
  {b01e1a8d-a9b6-4be8-980b-0b756f29d652}, ! Layer 2
  {bb53f21c-22f9-4394-973a-f1fc2b78cce2}, ! Layer 3
  {d0bcdec4-4897-4980-a6ac-f1dbf3b08e82}; ! Layer 4

OS:Construction,
  {9d25f2ba-52a3-40a4-801b-4469980a4770}, ! Handle
  ASHRAE 189.1-2009 ExtWall Mass ClimateZone alt-res 3, ! Name
  {b951c64f-5666-4aa0-b5b5-d86f61c1fed0}, ! Surface Rendering Name
  {876daf02-9ba1-427c-8fd6-d0480511d9b1}, ! Layer 1
  {b01e1a8d-a9b6-4be8-980b-0b756f29d652}, ! Layer 2
  {92e57e0f-ff94-4c69-a64e-9ef0949e3dc3}, ! Layer 3
  {d0bcdec4-4897-4980-a6ac-f1dbf3b08e82}; ! Layer 4

OS:Construction,
  {9872d102-f2b8-429d-881a-3307122ec42b}, ! Handle
  ASHRAE 189.1-2009 ExtWall Mass ClimateZone alt-res 4, ! Name
  {8c14eee2-5daf-481a-96f2-861e39a7da60}, ! Surface Rendering Name
  {876daf02-9ba1-427c-8fd6-d0480511d9b1}, ! Layer 1
  {b01e1a8d-a9b6-4be8-980b-0b756f29d652}, ! Layer 2
  {b7f14c88-bb2c-4d00-85a7-99fc1e2b8033}, ! Layer 3
  {d0bcdec4-4897-4980-a6ac-f1dbf3b08e82}; ! Layer 4

OS:Construction,
  {b0a83d57-3673-4520-933c-c2a3c3962e12}, ! Handle
  ASHRAE 189.1-2009 ExtWall Mass ClimateZone alt-res 5, ! Name
  {d25a87d7-53ef-495e-a416-2926e73e070c}, ! Surface Rendering Name
  {876daf02-9ba1-427c-8fd6-d0480511d9b1}, ! Layer 1
  {b01e1a8d-a9b6-4be8-980b-0b756f29d652}, ! Layer 2
  {6b8ca1d2-f3af-4d5a-888a-fffc97f3a1f7}, ! Layer 3
  {d0bcdec4-4897-4980-a6ac-f1dbf3b08e82}; ! Layer 4

OS:Construction,
  {8330804e-554a-4da7-8b10-c1f43765e356}, ! Handle
  ASHRAE 189.1-2009 ExtWall Mass ClimateZone alt-res 6, ! Name
  {38e0ba5e-57f7-4e1a-94f6-e24af7ed190e}, ! Surface Rendering Name
  {876daf02-9ba1-427c-8fd6-d0480511d9b1}, ! Layer 1
  {b01e1a8d-a9b6-4be8-980b-0b756f29d652}, ! Layer 2
  {bd108f84-21f5-4369-8eb1-f038ce37dcd6}, ! Layer 3
  {d0bcdec4-4897-4980-a6ac-f1dbf3b08e82}; ! Layer 4

OS:Construction,
  {39ae080c-a8f3-4dc9-843f-9ef8ad19a0ad}, ! Handle
  ASHRAE 189.1-2009 ExtWall Mass ClimateZone alt-res 7, ! Name
  {fe0278ea-4952-4c1f-9c57-28a9a8170cf5}, ! Surface Rendering Name
  {876daf02-9ba1-427c-8fd6-d0480511d9b1}, ! Layer 1
  {b01e1a8d-a9b6-4be8-980b-0b756f29d652}, ! Layer 2
  {bd108f84-21f5-4369-8eb1-f038ce37dcd6}, ! Layer 3
  {d0bcdec4-4897-4980-a6ac-f1dbf3b08e82}; ! Layer 4

OS:Construction,
  {ef7b9612-552a-4941-b396-ea413317becd}, ! Handle
  ASHRAE 189.1-2009 ExtWall Mass ClimateZone alt-res 8, ! Name
  {76bc93b1-844c-4dcb-89b4-5d1bd3968297}, ! Surface Rendering Name
  {876daf02-9ba1-427c-8fd6-d0480511d9b1}, ! Layer 1
  {b01e1a8d-a9b6-4be8-980b-0b756f29d652}, ! Layer 2
  {3352bc6e-5779-493a-ba54-fab650fbcdcf}, ! Layer 3
  {d0bcdec4-4897-4980-a6ac-f1dbf3b08e82}; ! Layer 4

OS:Construction,
  {01fb9e7a-24bc-4dce-9295-39389fa694d4}, ! Handle
  ASHRAE 189.1-2009 ExtWall Metal ClimateZone 1-3, ! Name
  {b22361d4-897c-40d8-b4d9-b211b9fba313}, ! Surface Rendering Name
  {f8c6a153-ac0e-4fc9-9318-181024e63aca}, ! Layer 1
  {a87702d9-d3d7-4923-aaa5-2dcfada490d1}, ! Layer 2
  {d0bcdec4-4897-4980-a6ac-f1dbf3b08e82}; ! Layer 3

OS:Construction,
  {e40f76ca-e515-4c0d-9919-ae217a0bb8d3}, ! Handle
  ASHRAE 189.1-2009 ExtWall Metal ClimateZone 4-8, ! Name
  {13580178-8615-4ae0-92f7-b7863dac2e9a}, ! Surface Rendering Name
  {f8c6a153-ac0e-4fc9-9318-181024e63aca}, ! Layer 1
  {1456ead5-55e7-4cd0-a722-23a3f645e070}, ! Layer 2
  {d0bcdec4-4897-4980-a6ac-f1dbf3b08e82}; ! Layer 3

OS:Construction,
  {e44d9e98-204c-4451-bbc5-e20547feacf1}, ! Handle
  ASHRAE 189.1-2009 ExtWall SteelFrame ClimateZone 1-3, ! Name
  {68a439b5-7c07-40dc-9e54-1e2fea403805}, ! Surface Rendering Name
  {23dfee5a-8a61-4fb8-9b83-587005340e96}, ! Layer 1
  {6aa12cfe-0531-49e5-b5aa-02c7729d4b59}, ! Layer 2
  {d0bcdec4-4897-4980-a6ac-f1dbf3b08e82}; ! Layer 3

OS:Construction,
  {3a7aa8c8-17db-4c66-8260-d5c39174e87c}, ! Handle
  ASHRAE 189.1-2009 ExtWall SteelFrame ClimateZone 4-8, ! Name
  {2611680b-34f2-4df1-a7cf-aaaf91f03619}, ! Surface Rendering Name
  {23dfee5a-8a61-4fb8-9b83-587005340e96}, ! Layer 1
  {91139465-780b-4114-9367-c899963b54d6}, ! Layer 2
  {d0bcdec4-4897-4980-a6ac-f1dbf3b08e82}; ! Layer 3

OS:Construction,
  {274df8fe-a025-4052-9bc0-973eb2d6906d}, ! Handle
  ASHRAE 189.1-2009 ExtWall WoodFrame ClimateZone 1-4, ! Name
  {54faad7a-d063-4d6c-aa09-92fce211ced8}, ! Surface Rendering Name
  {de03729f-928c-482d-9ff3-b002ae409cfb}, ! Layer 1
  {569f21b4-8d8e-460b-a766-3b400fd5e109}, ! Layer 2
  {d0bcdec4-4897-4980-a6ac-f1dbf3b08e82}; ! Layer 3

OS:Construction,
  {457ad273-7fba-4bbb-ac7d-4a81988d381e}, ! Handle
  ASHRAE 189.1-2009 ExtWall WoodFrame ClimateZone 5, ! Name
  {acedbf39-9182-4eca-b402-a1a2cd4a7c8a}, ! Surface Rendering Name
  {de03729f-928c-482d-9ff3-b002ae409cfb}, ! Layer 1
  {8e8ceb6a-4158-4852-ad13-995b95289030}, ! Layer 2
  {d0bcdec4-4897-4980-a6ac-f1dbf3b08e82}; ! Layer 3

OS:Construction,
  {0628d388-5d69-4518-b9d1-88a29f80da61}, ! Handle
  ASHRAE 189.1-2009 ExtWall WoodFrame ClimateZone 6-8, ! Name
  {6c608764-427f-48d4-b55d-7256251c0ce7}, ! Surface Rendering Name
  {de03729f-928c-482d-9ff3-b002ae409cfb}, ! Layer 1
  {dba250d9-e798-4a2e-abd1-7746a93485e4}, ! Layer 2
  {d0bcdec4-4897-4980-a6ac-f1dbf3b08e82}; ! Layer 3

OS:Construction,
  {181488be-feab-4908-b3c1-b62c05a55898}, ! Handle
  ASHRAE 189.1-2009 ExtWindow ClimateZone 1, ! Name
  {29d2ea35-8336-439e-bc18-f09eb02b41e3}, ! Surface Rendering Name
  {6aeb42af-241f-4840-8ec4-07fd2751ef46}; ! Layer 1

OS:Construction,
  {60e9bc04-22f4-4753-a653-41cfbb6048fe}, ! Handle
  ASHRAE 189.1-2009 ExtWindow ClimateZone 2, ! Name
  {e6ab80cf-70ce-473d-a730-317620f3fa46}, ! Surface Rendering Name
  {9a748c0a-0371-4572-b651-bf1638ca3fd7}; ! Layer 1

OS:Construction,
  {2837be17-a7e9-4219-b41a-55c372712ed2}, ! Handle
  ASHRAE 189.1-2009 ExtWindow ClimateZone 3, ! Name
  {0e3c84d0-9dcc-401a-852f-4c38052660d3}, ! Surface Rendering Name
  {47670adf-a9cd-45f8-af93-d024849cf354}; ! Layer 1

OS:Construction,
  {47890454-cb6c-480c-8109-f7a5e80ef334}, ! Handle
  ASHRAE 189.1-2009 ExtWindow ClimateZone 4-5, ! Name
  {2f67cca4-0ec3-4d27-b794-85bc9c9827d4}, ! Surface Rendering Name
  {3dff9a78-ffb5-42b1-b839-506515cdb7fc}; ! Layer 1

OS:Construction,
  {38b9c6d9-d770-49dc-9fdf-75fb2e28fa25}, ! Handle
  ASHRAE 189.1-2009 ExtWindow ClimateZone 6, ! Name
  {0bf196b3-69cf-40c6-84c3-0d2aa019e74d}, ! Surface Rendering Name
  {c46a64b9-4426-4931-9b62-9a3eea9bc186}; ! Layer 1

OS:Construction,
  {5b21bf93-3640-4afa-b010-cbb05f7ab8fa}, ! Handle
  ASHRAE 189.1-2009 ExtWindow ClimateZone 7-8, ! Name
  {7f0ec398-097d-4578-8b2e-2c391129d271}, ! Surface Rendering Name
  {ab203de3-09af-42b2-a465-d8626d174aff}; ! Layer 1

OS:Construction,
  {06e478ca-ab94-429e-a2d6-de5727d07452}, ! Handle
  ASHRAE 189.1-2009 ExtWindow ClimateZone alt-res 4-5, ! Name
  {2908569b-22ed-4e59-8008-1f3044afab84}, ! Surface Rendering Name
  {c46a64b9-4426-4931-9b62-9a3eea9bc186}; ! Layer 1

OS:Construction,
  {b1df47e5-ac86-40fd-9239-f7a1a92fab28}, ! Handle
  ASHRAE 90.1-2004 AtticFloor ClimateZone 1-5, ! Name
  {d6e1ca18-b360-488d-b5e2-2736252747b2}, ! Surface Rendering Name
  {d0bcdec4-4897-4980-a6ac-f1dbf3b08e82}, ! Layer 1
  {5eb8cfae-fc6f-4aff-81d8-85e944678423}, ! Layer 2
  {d0bcdec4-4897-4980-a6ac-f1dbf3b08e82}; ! Layer 3

OS:Construction,
  {be65b6de-3500-4b61-8507-cc67a302cc13}, ! Handle
  ASHRAE 90.1-2004 AtticFloor ClimateZone 6-8, ! Name
  {784469af-c0a5-42dc-981b-0870a9a6a88c}, ! Surface Rendering Name
  {d0bcdec4-4897-4980-a6ac-f1dbf3b08e82}, ! Layer 1
  {d4607f3a-6a77-4838-9f1a-0b0dd6ca7e04}, ! Layer 2
  {d0bcdec4-4897-4980-a6ac-f1dbf3b08e82}; ! Layer 3

OS:Construction,
  {e3f42c1e-5e6f-4317-9a6b-c23228648877}, ! Handle
  ASHRAE 90.1-2004 ExtRoof IEAD ClimateZone 1-4, ! Name
  {62709ea1-136b-4f0a-bdcc-c62594f625f4}, ! Surface Rendering Name
  {287f4923-83c0-45ad-96fb-2025616216b3}, ! Layer 1
  {934ff0d7-57d8-4bfb-a20a-6f56c5b279a2}, ! Layer 2
  {25aa6d7a-edbf-4687-a6b8-1cf632ffc0a4}; ! Layer 3

OS:Construction,
  {169fc5da-ce7c-4df5-a82c-d6ed017a2229}, ! Handle
  ASHRAE 90.1-2004 ExtRoof IEAD ClimateZone 5-6, ! Name
  {ddea59ae-11fe-44c7-960a-92d70e2cf36b}, ! Surface Rendering Name
  {287f4923-83c0-45ad-96fb-2025616216b3}, ! Layer 1
  {55c2f0d5-dd2e-4243-8601-35a7c9dcd7db}, ! Layer 2
  {25aa6d7a-edbf-4687-a6b8-1cf632ffc0a4}; ! Layer 3

OS:Construction,
  {4c6eacbb-28bf-4a50-b466-2b211962a677}, ! Handle
  ASHRAE 90.1-2004 ExtRoof IEAD ClimateZone 7, ! Name
  {45ad38bb-e30d-48ee-8217-c4e8c3fc6665}, ! Surface Rendering Name
  {287f4923-83c0-45ad-96fb-2025616216b3}, ! Layer 1
  {934ff0d7-57d8-4bfb-a20a-6f56c5b279a2}, ! Layer 2
  {25aa6d7a-edbf-4687-a6b8-1cf632ffc0a4}; ! Layer 3

OS:Construction,
  {7cfef957-52c4-4bc2-bff9-1548b9e1e174}, ! Handle
  ASHRAE 90.1-2004 ExtRoof IEAD ClimateZone 8, ! Name
  {68b23e07-81ca-40d3-8fc4-bd91c32798cd}, ! Surface Rendering Name
  {287f4923-83c0-45ad-96fb-2025616216b3}, ! Layer 1
  {7bca7a2f-c542-44c5-a7cd-cb3dc1a07556}, ! Layer 2
  {25aa6d7a-edbf-4687-a6b8-1cf632ffc0a4}; ! Layer 3

OS:Construction,
  {b62b152b-e5ff-4b89-a56e-55915dd6fdbb}, ! Handle
  ASHRAE 90.1-2004 ExtRoof Metal ClimateZone 1, ! Name
  {6b6779c1-b38e-4e0e-b1f8-cee0bcbd9c67}, ! Surface Rendering Name
  {5bd16312-d050-4d10-8f23-d6b6b25cb443}; ! Layer 1

OS:Construction,
  {7b72c52d-6f26-4fc4-a73a-56839ad2c7f4}, ! Handle
  ASHRAE 90.1-2004 ExtRoof Metal ClimateZone 2, ! Name
  {242a23f7-4f9b-4b0b-b195-b275926536a0}, ! Surface Rendering Name
  {5bd16312-d050-4d10-8f23-d6b6b25cb443}, ! Layer 1
  {ed0f91de-bc14-46d9-8a47-4a42bb6d191f}; ! Layer 2

OS:Construction,
  {d34188b7-50ec-46cf-8ef9-b99cba99cfa4}, ! Handle
  ASHRAE 90.1-2004 ExtRoof Metal ClimateZone 3-4, ! Name
  {516735c9-439f-4c62-8748-ca14ec86c342}, ! Surface Rendering Name
  {5bd16312-d050-4d10-8f23-d6b6b25cb443}, ! Layer 1
  {aa9a2255-a399-4ba6-bda7-0613fc98b6f2}; ! Layer 2

OS:Construction,
  {bebda2ac-5024-47ac-b131-1369a2f11f3d}, ! Handle
  ASHRAE 90.1-2004 ExtRoof Metal ClimateZone 5-6, ! Name
  {f53347dd-3331-433e-9ca6-0effd177fece}, ! Surface Rendering Name
  {5bd16312-d050-4d10-8f23-d6b6b25cb443}, ! Layer 1
  {0265245a-95b0-4623-b848-29c92c4bf626}; ! Layer 2

OS:Construction,
  {813e4f53-fb5b-44e3-b1ad-c46770f5f467}, ! Handle
  ASHRAE 90.1-2004 ExtRoof Metal ClimateZone 7, ! Name
  {93140ea1-88ef-4d61-ae59-290f35586bb0}, ! Surface Rendering Name
  {5bd16312-d050-4d10-8f23-d6b6b25cb443}, ! Layer 1
  {aa9a2255-a399-4ba6-bda7-0613fc98b6f2}; ! Layer 2

OS:Construction,
  {0282810c-f97f-45fb-b9ff-acdf44414447}, ! Handle
  ASHRAE 90.1-2004 ExtRoof Metal ClimateZone 8, ! Name
  {8e809baf-7551-4314-a492-d9f1a6c3ecc5}, ! Surface Rendering Name
  {5bd16312-d050-4d10-8f23-d6b6b25cb443}, ! Layer 1
  {09e2e2fc-7351-4a50-958d-32daf83e405a}; ! Layer 2

OS:Construction,
  {3a9b8337-6958-499a-8380-8857819ce03e}, ! Handle
  ASHRAE 90.1-2004 ExtWall Mass ClimateZone 1-2, ! Name
  {dfbd8824-7d28-4473-968f-e7b3017a26b8}, ! Surface Rendering Name
  {876daf02-9ba1-427c-8fd6-d0480511d9b1}, ! Layer 1
  {cf94f53a-e26c-4eba-8b6a-b9c05e36c667}, ! Layer 2
  {d0bcdec4-4897-4980-a6ac-f1dbf3b08e82}; ! Layer 3

OS:Construction,
  {ebcbd7d9-4e64-44ee-b6f0-39383845c881}, ! Handle
  ASHRAE 90.1-2004 ExtWall Mass ClimateZone 3-4, ! Name
  {8e258e12-c762-45e7-a4ac-218f8a42447a}, ! Surface Rendering Name
  {876daf02-9ba1-427c-8fd6-d0480511d9b1}, ! Layer 1
  {cf94f53a-e26c-4eba-8b6a-b9c05e36c667}, ! Layer 2
  {b70c9e25-952c-4caf-8831-e421ec3cbfde}, ! Layer 3
  {d0bcdec4-4897-4980-a6ac-f1dbf3b08e82}; ! Layer 4

OS:Construction,
  {c3df9430-d225-431a-a6f9-b78ed2880b14}, ! Handle
  ASHRAE 90.1-2004 ExtWall Mass ClimateZone 5, ! Name
  {475ea341-0c8a-4d29-97cf-ccbecbcb3d9e}, ! Surface Rendering Name
  {876daf02-9ba1-427c-8fd6-d0480511d9b1}, ! Layer 1
  {cf94f53a-e26c-4eba-8b6a-b9c05e36c667}, ! Layer 2
  {ccf61e78-8222-4fad-a51c-75c60a660985}, ! Layer 3
  {d0bcdec4-4897-4980-a6ac-f1dbf3b08e82}; ! Layer 4

OS:Construction,
  {08cf6a59-800c-426d-97e8-86dfa3d72a46}, ! Handle
  ASHRAE 90.1-2004 ExtWall Mass ClimateZone 6, ! Name
  {f4b263a4-5e75-40ae-8316-fb77f33b0620}, ! Surface Rendering Name
  {876daf02-9ba1-427c-8fd6-d0480511d9b1}, ! Layer 1
  {cf94f53a-e26c-4eba-8b6a-b9c05e36c667}, ! Layer 2
  {a2dc97a7-20c4-42c6-83c3-66fafdba9c0a}, ! Layer 3
  {d0bcdec4-4897-4980-a6ac-f1dbf3b08e82}; ! Layer 4

OS:Construction,
  {9c76ff1d-1137-4c13-923a-1adabb72b355}, ! Handle
  ASHRAE 90.1-2004 ExtWall Mass ClimateZone 7, ! Name
  {e209122f-81db-46d1-9eea-cc59f206ada0}, ! Surface Rendering Name
  {876daf02-9ba1-427c-8fd6-d0480511d9b1}, ! Layer 1
  {cf94f53a-e26c-4eba-8b6a-b9c05e36c667}, ! Layer 2
  {8c55ed65-ed6c-4b28-a810-4fc9167b7734}, ! Layer 3
  {d0bcdec4-4897-4980-a6ac-f1dbf3b08e82}; ! Layer 4

OS:Construction,
  {64f4c11d-562b-4787-a3c6-786079b8f7b7}, ! Handle
  ASHRAE 90.1-2004 ExtWall Mass ClimateZone 8, ! Name
  {118cc708-e61d-4f88-92bd-c876fa9cd0df}, ! Surface Rendering Name
  {876daf02-9ba1-427c-8fd6-d0480511d9b1}, ! Layer 1
  {cf94f53a-e26c-4eba-8b6a-b9c05e36c667}, ! Layer 2
  {84abae76-b2c0-48e5-94c7-be38451def23}, ! Layer 3
  {d0bcdec4-4897-4980-a6ac-f1dbf3b08e82}; ! Layer 4

OS:Construction,
  {54bf91a8-3130-41a8-b8b7-3f8ea55ec8fd}, ! Handle
  ASHRAE 90.1-2004 ExtWall Mass ClimateZone alt-res 1-2, ! Name
  {f67faf7d-e823-4681-ba6c-6324921c2f9f}, ! Surface Rendering Name
  {876daf02-9ba1-427c-8fd6-d0480511d9b1}, ! Layer 1
  {cf94f53a-e26c-4eba-8b6a-b9c05e36c667}, ! Layer 2
  {b70c9e25-952c-4caf-8831-e421ec3cbfde}, ! Layer 3
  {d0bcdec4-4897-4980-a6ac-f1dbf3b08e82}; ! Layer 4

OS:Construction,
  {76672cc7-cd16-4719-a3fb-941b4954b933}, ! Handle
  ASHRAE 90.1-2004 ExtWall Mass ClimateZone alt-res 3, ! Name
  {e2991c3e-de55-42d7-9b3c-d8ddd5c85d92}, ! Surface Rendering Name
  {876daf02-9ba1-427c-8fd6-d0480511d9b1}, ! Layer 1
  {cf94f53a-e26c-4eba-8b6a-b9c05e36c667}, ! Layer 2
  {ccf61e78-8222-4fad-a51c-75c60a660985}, ! Layer 3
  {d0bcdec4-4897-4980-a6ac-f1dbf3b08e82}; ! Layer 4

OS:Construction,
  {0e342b9a-0b9f-4745-ae3f-97ba6f639069}, ! Handle
  ASHRAE 90.1-2004 ExtWall Mass ClimateZone alt-res 4, ! Name
  {8edd4a3d-b9c8-4aa5-bca0-40635a68f44c}, ! Surface Rendering Name
  {876daf02-9ba1-427c-8fd6-d0480511d9b1}, ! Layer 1
  {cf94f53a-e26c-4eba-8b6a-b9c05e36c667}, ! Layer 2
  {a2dc97a7-20c4-42c6-83c3-66fafdba9c0a}, ! Layer 3
  {d0bcdec4-4897-4980-a6ac-f1dbf3b08e82}; ! Layer 4

OS:Construction,
  {4a8cecdf-41c1-409b-81ce-1e90d8892def}, ! Handle
  ASHRAE 90.1-2004 ExtWall Mass ClimateZone alt-res 5-6, ! Name
  {e4fa7891-5efb-416b-9391-17bcc67deb19}, ! Surface Rendering Name
  {876daf02-9ba1-427c-8fd6-d0480511d9b1}, ! Layer 1
  {cf94f53a-e26c-4eba-8b6a-b9c05e36c667}, ! Layer 2
  {8c55ed65-ed6c-4b28-a810-4fc9167b7734}, ! Layer 3
  {d0bcdec4-4897-4980-a6ac-f1dbf3b08e82}; ! Layer 4

OS:Construction,
  {687f50d8-5b88-43c0-bc5b-32caafc30a89}, ! Handle
  ASHRAE 90.1-2004 ExtWall Mass ClimateZone alt-res 7, ! Name
  {4524b0d5-fadc-4cf2-9016-013c96671421}, ! Surface Rendering Name
  {876daf02-9ba1-427c-8fd6-d0480511d9b1}, ! Layer 1
  {cf94f53a-e26c-4eba-8b6a-b9c05e36c667}, ! Layer 2
  {84abae76-b2c0-48e5-94c7-be38451def23}, ! Layer 3
  {d0bcdec4-4897-4980-a6ac-f1dbf3b08e82}; ! Layer 4

OS:Construction,
  {08dfed96-c0b1-4704-9052-66f365c81163}, ! Handle
  ASHRAE 90.1-2004 ExtWall Mass ClimateZone alt-res 8, ! Name
  {42817fb6-2d29-4ffb-a634-889d7a0160ff}, ! Surface Rendering Name
  {876daf02-9ba1-427c-8fd6-d0480511d9b1}, ! Layer 1
  {cf94f53a-e26c-4eba-8b6a-b9c05e36c667}, ! Layer 2
  {1f8c03ce-d561-4225-9559-7d336318ce5b}, ! Layer 3
  {d0bcdec4-4897-4980-a6ac-f1dbf3b08e82}; ! Layer 4

OS:Construction,
  {7d37a269-f60a-4843-b3d4-bf19b53c23d1}, ! Handle
  ASHRAE 90.1-2004 ExtWall Metal ClimateZone 1, ! Name
  {d67487df-e6e2-4b97-999f-7ccc059e1096}, ! Surface Rendering Name
  {f8c6a153-ac0e-4fc9-9318-181024e63aca}, ! Layer 1
  {d0bcdec4-4897-4980-a6ac-f1dbf3b08e82}; ! Layer 2

OS:Construction,
  {b13d8ee7-0a90-4188-bda5-0e097f634bec}, ! Handle
  ASHRAE 90.1-2004 ExtWall Metal ClimateZone 2-3, ! Name
  {dc090e3f-6834-4f42-a65a-971906a7cf31}, ! Surface Rendering Name
  {f8c6a153-ac0e-4fc9-9318-181024e63aca}, ! Layer 1
  {7a2f3ca1-d480-424d-a112-c103a09575b0}, ! Layer 2
  {d0bcdec4-4897-4980-a6ac-f1dbf3b08e82}; ! Layer 3

OS:Construction,
  {bf9a279e-d057-4f9a-abcc-b243e1ce0eb5}, ! Handle
  ASHRAE 90.1-2004 ExtWall Metal ClimateZone 4, ! Name
  {2c2de9d4-4317-41f2-a993-dfdf43fec499}, ! Surface Rendering Name
  {f8c6a153-ac0e-4fc9-9318-181024e63aca}, ! Layer 1
  {49c89357-29bf-4f01-857c-83b813bfa6ac}, ! Layer 2
  {d0bcdec4-4897-4980-a6ac-f1dbf3b08e82}; ! Layer 3

OS:Construction,
  {94bfa5c5-3673-4dc4-b762-ce9466b38942}, ! Handle
  ASHRAE 90.1-2004 ExtWall Metal ClimateZone 5, ! Name
  {c01274b0-745c-41af-a4af-c2f3086de91c}, ! Surface Rendering Name
  {f8c6a153-ac0e-4fc9-9318-181024e63aca}, ! Layer 1
  {0d0b6ac5-c93a-40cb-b541-15db58063d6f}, ! Layer 2
  {d0bcdec4-4897-4980-a6ac-f1dbf3b08e82}; ! Layer 3

OS:Construction,
  {4aa74eb0-3e6f-45cc-82d1-587291cccc63}, ! Handle
  ASHRAE 90.1-2004 ExtWall Metal ClimateZone 6-8, ! Name
  {2a4573a2-b7e8-47dd-b023-aa30fd769fee}, ! Surface Rendering Name