
OS:Version,
  {ada2c808-3f24-433d-9f17-ba5c3553eb69}, !- Handle
  1.4.0;                                  !- Version Identifier

OS:Construction,
  {3b887eaf-392c-4797-9c08-7409033476db}, !- Handle
  ASHRAE 189.1-2009 AtticFloor ClimateZone 1-8, !- Name
  ,                                       !- Surface Rendering Name
  {701dcb40-fa9c-4ac1-bf40-695156ddd355}, !- Layer 1
  {368e19f7-2fc9-4c21-82e4-a00445f6a3de}, !- Layer 2
  {701dcb40-fa9c-4ac1-bf40-695156ddd355}; !- Layer 3

OS:StandardsInformation:Construction,
  {eea6bd50-1bf3-4fff-a309-a4c64dcb147a}, !- Handle
  {3b887eaf-392c-4797-9c08-7409033476db}, !- Construction Name
  AtticFloor,                             !- Intended Surface Type
  WoodFramed;                             !- Standards Construction Type

OS:Material,
  {701dcb40-fa9c-4ac1-bf40-695156ddd355}, !- Handle
  1/2IN Gypsum,                           !- Name
  Smooth,                                 !- Roughness
  0.0127,                                 !- Thickness {m}
  0.16,                                   !- Conductivity {W/m-K}
  784.9,                                  !- Density {kg/m3}
  830.000000000001,                       !- Specific Heat {J/kg-K}
  0.9,                                    !- Thermal Absorptance
  0.4,                                    !- Solar Absorptance
  0.4;                                    !- Visible Absorptance

OS:Material,
  {368e19f7-2fc9-4c21-82e4-a00445f6a3de}, !- Handle
  AtticFloor Insulation,                  !- Name
  MediumRough,                            !- Roughness
  0.2379,                                 !- Thickness {m}
  0.049,                                  !- Conductivity {W/m-K}
  265,                                    !- Density {kg/m3}
  836.800000000001,                       !- Specific Heat {J/kg-K}
  0.9,                                    !- Thermal Absorptance
  0.7,                                    !- Solar Absorptance
  0.7;                                    !- Visible Absorptance

OS:Construction,
  {e4965ea3-5537-4fb3-bb48-7efcf7b88322}, !- Handle
  ASHRAE 189.1-2009 ExtRoof IEAD ClimateZone 1, !- Name
  ,                                       !- Surface Rendering Name
  {2a27c859-d563-45a1-9702-f422f5739065}, !- Layer 1
  {a9d67955-e62a-402e-8042-bbb7e56595c0}, !- Layer 2
  {919b151a-0828-4250-9a86-5b6cd3c8c29b}; !- Layer 3

OS:StandardsInformation:Construction,
  {09790a02-ff6f-4163-b9e6-0e0667898979}, !- Handle
  {e4965ea3-5537-4fb3-bb48-7efcf7b88322}, !- Construction Name
  ExteriorRoof,                           !- Intended Surface Type
  IEAD;                                   !- Standards Construction Type

OS:Material,
  {2a27c859-d563-45a1-9702-f422f5739065}, !- Handle
  Roof Membrane,                          !- Name
  VeryRough,                              !- Roughness
  0.0095,                                 !- Thickness {m}
  0.16,                                   !- Conductivity {W/m-K}
  1121.29,                                !- Density {kg/m3}
  1460,                                   !- Specific Heat {J/kg-K}
  0.9,                                    !- Thermal Absorptance
  0.7,                                    !- Solar Absorptance
  0.7;                                    !- Visible Absorptance

OS:Material,
  {a9d67955-e62a-402e-8042-bbb7e56595c0}, !- Handle
  Roof Insulation [18],                   !- Name
  MediumRough,                            !- Roughness
  0.1693,                                 !- Thickness {m}
  0.049,                                  !- Conductivity {W/m-K}
  265,                                    !- Density {kg/m3}
  836.800000000001,                       !- Specific Heat {J/kg-K}
  0.9,                                    !- Thermal Absorptance
  0.7,                                    !- Solar Absorptance
  0.7;                                    !- Visible Absorptance

OS:Material,
  {919b151a-0828-4250-9a86-5b6cd3c8c29b}, !- Handle
  Metal Decking,                          !- Name
  MediumSmooth,                           !- Roughness
  0.0015,                                 !- Thickness {m}
  45.006,                                 !- Conductivity {W/m-K}
  7680,                                   !- Density {kg/m3}
  418.4,                                  !- Specific Heat {J/kg-K}
  0.9,                                    !- Thermal Absorptance
  0.6,                                    !- Solar Absorptance
  0.6;                                    !- Visible Absorptance

OS:Construction,
  {92dee4d8-ecd1-4b3e-af46-04d5cbb4fcc1}, !- Handle
  ASHRAE 189.1-2009 ExtRoof IEAD ClimateZone 2-5, !- Name
  ,                                       !- Surface Rendering Name
  {2a27c859-d563-45a1-9702-f422f5739065}, !- Layer 1
  {57dad8e9-47e2-40f2-a348-28f9b01689a8}, !- Layer 2
  {919b151a-0828-4250-9a86-5b6cd3c8c29b}; !- Layer 3

OS:StandardsInformation:Construction,
  {f927cd9e-9ea2-4497-9c4d-b4714993d2a9}, !- Handle
  {92dee4d8-ecd1-4b3e-af46-04d5cbb4fcc1}, !- Construction Name
  ExteriorRoof,                           !- Intended Surface Type
  IEAD;                                   !- Standards Construction Type

OS:Material,
  {57dad8e9-47e2-40f2-a348-28f9b01689a8}, !- Handle
  Roof Insulation [21],                   !- Name
  MediumRough,                            !- Roughness
  0.2105,                                 !- Thickness {m}
  0.049,                                  !- Conductivity {W/m-K}
  265,                                    !- Density {kg/m3}
  836.800000000001,                       !- Specific Heat {J/kg-K}
  0.9,                                    !- Thermal Absorptance
  0.7,                                    !- Solar Absorptance
  0.7;                                    !- Visible Absorptance

OS:Construction,
  {fd245d51-c5e7-49f8-8e30-02cbd9d71890}, !- Handle
  ASHRAE 189.1-2009 ExtRoof IEAD ClimateZone 6, !- Name
  ,                                       !- Surface Rendering Name
  {2a27c859-d563-45a1-9702-f422f5739065}, !- Layer 1
  {c1b3444c-420b-4ad0-ae77-64984d58b12d}, !- Layer 2
  {919b151a-0828-4250-9a86-5b6cd3c8c29b}; !- Layer 3

OS:StandardsInformation:Construction,
  {f85d3bd8-fe63-4273-8343-bb0579d6bb3c}, !- Handle
  {fd245d51-c5e7-49f8-8e30-02cbd9d71890}, !- Construction Name
  ExteriorRoof,                           !- Intended Surface Type
  IEAD;                                   !- Standards Construction Type

OS:Material,
  {c1b3444c-420b-4ad0-ae77-64984d58b12d}, !- Handle
  Roof Insulation [24],                   !- Name
  MediumRough,                            !- Roughness
  0.260100000000001,                      !- Thickness {m}
  0.049,                                  !- Conductivity {W/m-K}
  265,                                    !- Density {kg/m3}
  836.800000000001,                       !- Specific Heat {J/kg-K}
  0.9,                                    !- Thermal Absorptance
  0.7,                                    !- Solar Absorptance
  0.7;                                    !- Visible Absorptance

OS:Construction,
  {0789e3d7-39f8-4609-aadb-aa2468ae1410}, !- Handle
  ASHRAE 189.1-2009 ExtRoof IEAD ClimateZone 7-8, !- Name
  ,                                       !- Surface Rendering Name
  {2a27c859-d563-45a1-9702-f422f5739065}, !- Layer 1
  {7c9774ea-3ec1-4dfa-b769-debd373b0934}, !- Layer 2
  {919b151a-0828-4250-9a86-5b6cd3c8c29b}; !- Layer 3

OS:StandardsInformation:Construction,
  {3e3199c8-d57f-477d-8e3e-28d0b3a1fb49}, !- Handle
  {0789e3d7-39f8-4609-aadb-aa2468ae1410}, !- Construction Name
  ExteriorRoof,                           !- Intended Surface Type
  IEAD;                                   !- Standards Construction Type

OS:Material,
  {7c9774ea-3ec1-4dfa-b769-debd373b0934}, !- Handle
  Roof Insulation [26],                   !- Name
  MediumRough,                            !- Roughness
  0.2941,                                 !- Thickness {m}
  0.049,                                  !- Conductivity {W/m-K}
  265,                                    !- Density {kg/m3}
  836.800000000001,                       !- Specific Heat {J/kg-K}
  0.9,                                    !- Thermal Absorptance
  0.7,                                    !- Solar Absorptance
  0.7;                                    !- Visible Absorptance

OS:Construction,
  {c9e999a4-8bb2-4b82-96f2-6351ecc3c25c}, !- Handle
  ASHRAE 189.1-2009 ExtRoof Metal ClimateZone 1, !- Name
  ,                                       !- Surface Rendering Name
  {6e803a81-2cff-45d4-98c5-0a05dc308d73}, !- Layer 1
  {7f5e4c10-9e09-4440-8498-2bdfe6d97716}, !- Layer 2
  {919b151a-0828-4250-9a86-5b6cd3c8c29b}; !- Layer 3

OS:StandardsInformation:Construction,
  {fd8296b0-c025-4de8-8341-9b70f1c1c405}, !- Handle
  {c9e999a4-8bb2-4b82-96f2-6351ecc3c25c}, !- Construction Name
  ExteriorRoof,                           !- Intended Surface Type
  Metal;                                  !- Standards Construction Type

OS:Material,
  {6e803a81-2cff-45d4-98c5-0a05dc308d73}, !- Handle
  Metal Roofing,                          !- Name
  MediumSmooth,                           !- Roughness
  0.0015,                                 !- Thickness {m}
  45.006,                                 !- Conductivity {W/m-K}
  7680,                                   !- Density {kg/m3}
  418.4,                                  !- Specific Heat {J/kg-K}
  0.9,                                    !- Thermal Absorptance
  0.6,                                    !- Solar Absorptance
  0.6;                                    !- Visible Absorptance

OS:Material,
  {7f5e4c10-9e09-4440-8498-2bdfe6d97716}, !- Handle
  Roof Insulation [19],                   !- Name
  MediumRough,                            !- Roughness
  0.1868,                                 !- Thickness {m}
  0.049,                                  !- Conductivity {W/m-K}
  265,                                    !- Density {kg/m3}
  836.800000000001,                       !- Specific Heat {J/kg-K}
  0.9,                                    !- Thermal Absorptance
  0.7,                                    !- Solar Absorptance
  0.7;                                    !- Visible Absorptance

OS:Construction,
  {57b138e4-e80d-435b-8bc0-910e805ccc07}, !- Handle
  ASHRAE 189.1-2009 ExtRoof Metal ClimateZone 2-5, !- Name
  ,                                       !- Surface Rendering Name
  {6e803a81-2cff-45d4-98c5-0a05dc308d73}, !- Layer 1
  {1c3f2970-6cf7-4af1-bcef-a2e192fe6af1}, !- Layer 2
  {919b151a-0828-4250-9a86-5b6cd3c8c29b}; !- Layer 3

OS:StandardsInformation:Construction,
  {3129bf62-ec33-45be-98b3-d2f16f823500}, !- Handle
  {57b138e4-e80d-435b-8bc0-910e805ccc07}, !- Construction Name
  ExteriorRoof,                           !- Intended Surface Type
  Metal;                                  !- Standards Construction Type

OS:Material,
  {1c3f2970-6cf7-4af1-bcef-a2e192fe6af1}, !- Handle
  Roof Insulation [22],                   !- Name
  MediumRough,                            !- Roughness
  0.2358,                                 !- Thickness {m}
  0.049,                                  !- Conductivity {W/m-K}
  265,                                    !- Density {kg/m3}
  836.800000000001,                       !- Specific Heat {J/kg-K}
  0.9,                                    !- Thermal Absorptance
  0.7,                                    !- Solar Absorptance
  0.7;                                    !- Visible Absorptance

OS:Construction,
  {4f86d3c8-a927-4a58-8d1a-9c36b443c657}, !- Handle
  ASHRAE 189.1-2009 ExtRoof Metal ClimateZone 6, !- Name
  ,                                       !- Surface Rendering Name
  {6e803a81-2cff-45d4-98c5-0a05dc308d73}, !- Layer 1
  {c7963479-f6c9-48c5-9881-4a8786addca5}, !- Layer 2
  {919b151a-0828-4250-9a86-5b6cd3c8c29b}; !- Layer 3

OS:StandardsInformation:Construction,
  {d609c50c-9118-43df-b78a-20a1aaa8a0be}, !- Handle
  {4f86d3c8-a927-4a58-8d1a-9c36b443c657}, !- Construction Name
  ExteriorRoof,                           !- Intended Surface Type
  Metal;                                  !- Standards Construction Type

OS:Material,
  {c7963479-f6c9-48c5-9881-4a8786addca5}, !- Handle
  Roof Insulation [25],                   !- Name
  MediumRough,                            !- Roughness
  0.263,                                  !- Thickness {m}
  0.049,                                  !- Conductivity {W/m-K}
  265,                                    !- Density {kg/m3}
  836.800000000001,                       !- Specific Heat {J/kg-K}
  0.9,                                    !- Thermal Absorptance
  0.7,                                    !- Solar Absorptance
  0.7;                                    !- Visible Absorptance

OS:Construction,
  {df8eea3b-c8fd-46d6-a05e-2f45a110ff06}, !- Handle
  ASHRAE 189.1-2009 ExtRoof Metal ClimateZone 7-8, !- Name
  ,                                       !- Surface Rendering Name
  {6e803a81-2cff-45d4-98c5-0a05dc308d73}, !- Layer 1
  {a3db7a53-af38-450c-be76-e7516f4779a9}, !- Layer 2
  {919b151a-0828-4250-9a86-5b6cd3c8c29b}; !- Layer 3

OS:StandardsInformation:Construction,
  {a624560d-262d-4427-b9c7-37507a81e826}, !- Handle
  {df8eea3b-c8fd-46d6-a05e-2f45a110ff06}, !- Construction Name
  ExteriorRoof,                           !- Intended Surface Type
  Metal;                                  !- Standards Construction Type

OS:Material,
  {a3db7a53-af38-450c-be76-e7516f4779a9}, !- Handle
  Roof Insulation [27],                   !- Name
  MediumRough,                            !- Roughness
  0.297000000000001,                      !- Thickness {m}
  0.049,                                  !- Conductivity {W/m-K}
  265,                                    !- Density {kg/m3}
  836.800000000001,                       !- Specific Heat {J/kg-K}
  0.9,                                    !- Thermal Absorptance
  0.7,                                    !- Solar Absorptance
  0.7;                                    !- Visible Absorptance

OS:Construction,
  {de5c30ae-ab0d-4e60-8245-97530f7aab95}, !- Handle
  ASHRAE 189.1-2009 ExtWall Mass ClimateZone 1, !- Name
  ,                                       !- Surface Rendering Name
  {2452c43c-404b-46fd-8f19-957d4ef5bafb}, !- Layer 1
  {28f1cc65-dea3-4d88-ae9f-6511446fdb2c}, !- Layer 2
  {f0d1cc43-bce9-4c37-b88a-375a9ae569af}, !- Layer 3
  {701dcb40-fa9c-4ac1-bf40-695156ddd355}; !- Layer 4

OS:StandardsInformation:Construction,
  {eb98836e-fe09-4074-8ece-10fcd6a43de0}, !- Handle
  {de5c30ae-ab0d-4e60-8245-97530f7aab95}, !- Construction Name
  ExteriorWall,                           !- Intended Surface Type
  Mass;                                   !- Standards Construction Type

OS:Material,
  {2452c43c-404b-46fd-8f19-957d4ef5bafb}, !- Handle
  1IN Stucco,                             !- Name
  Smooth,                                 !- Roughness
  0.0253,                                 !- Thickness {m}
  0.691799999999999,                      !- Conductivity {W/m-K}
  1858,                                   !- Density {kg/m3}
  836.999999999999,                       !- Specific Heat {J/kg-K}
  0.9,                                    !- Thermal Absorptance
  0.92,                                   !- Solar Absorptance
  0.92;                                   !- Visible Absorptance

OS:Material,
  {28f1cc65-dea3-4d88-ae9f-6511446fdb2c}, !- Handle
  8IN Concrete HW,                        !- Name
  MediumRough,                            !- Roughness
  0.2033,                                 !- Thickness {m}
  1.72959999999999,                       !- Conductivity {W/m-K}
  2242.99999999999,                       !- Density {kg/m3}
  836.999999999999,                       !- Specific Heat {J/kg-K}
  0.9,                                    !- Thermal Absorptance
  0.65,                                   !- Solar Absorptance
  0.65;                                   !- Visible Absorptance

OS:Material,
  {f0d1cc43-bce9-4c37-b88a-375a9ae569af}, !- Handle
  Wall Insulation [31],                   !- Name
  MediumRough,                            !- Roughness
  0.0337000000000001,                     !- Thickness {m}
  0.0432,                                 !- Conductivity {W/m-K}
  91,                                     !- Density {kg/m3}
  836.999999999999,                       !- Specific Heat {J/kg-K}
  0.9,                                    !- Thermal Absorptance
  0.5,                                    !- Solar Absorptance
  0.5;                                    !- Visible Absorptance

OS:Construction,
  {a83da4ac-5337-4eac-b2c7-8611bc54cd0f}, !- Handle
  ASHRAE 189.1-2009 ExtWall Mass ClimateZone 2, !- Name
  ,                                       !- Surface Rendering Name
  {2452c43c-404b-46fd-8f19-957d4ef5bafb}, !- Layer 1
  {28f1cc65-dea3-4d88-ae9f-6511446fdb2c}, !- Layer 2
  {161a8215-f363-4a5f-90cc-c82dc48f46cd}, !- Layer 3
  {701dcb40-fa9c-4ac1-bf40-695156ddd355}; !- Layer 4

OS:StandardsInformation:Construction,
  {5a18da75-6125-4880-b5b6-33b18010c90f}, !- Handle
  {a83da4ac-5337-4eac-b2c7-8611bc54cd0f}, !- Construction Name
  ExteriorWall,                           !- Intended Surface Type
  Mass;                                   !- Standards Construction Type

OS:Material,
  {161a8215-f363-4a5f-90cc-c82dc48f46cd}, !- Handle
  Wall Insulation [35],                   !- Name
  MediumRough,                            !- Roughness
  0.0452,                                 !- Thickness {m}
  0.0432,                                 !- Conductivity {W/m-K}
  91,                                     !- Density {kg/m3}
  836.999999999999,                       !- Specific Heat {J/kg-K}
  0.9,                                    !- Thermal Absorptance
  0.5,                                    !- Solar Absorptance
  0.5;                                    !- Visible Absorptance

OS:Construction,
  {4e920126-3efd-40b8-97e7-2384a493afff}, !- Handle
  ASHRAE 189.1-2009 ExtWall Mass ClimateZone 3, !- Name
  ,                                       !- Surface Rendering Name
  {2452c43c-404b-46fd-8f19-957d4ef5bafb}, !- Layer 1
  {28f1cc65-dea3-4d88-ae9f-6511446fdb2c}, !- Layer 2
  {8accbfe8-9b65-4f20-a556-2303fabc7e06}, !- Layer 3
  {701dcb40-fa9c-4ac1-bf40-695156ddd355}; !- Layer 4

OS:StandardsInformation:Construction,
  {9434fd67-b6d2-4e55-b2dc-9290fa528ad2}, !- Handle
  {4e920126-3efd-40b8-97e7-2384a493afff}, !- Construction Name
  ExteriorWall,                           !- Intended Surface Type
  Mass;                                   !- Standards Construction Type

OS:Material,
  {8accbfe8-9b65-4f20-a556-2303fabc7e06}, !- Handle
  Wall Insulation [36],                   !- Name
  MediumRough,                            !- Roughness
  0.0565999999999999,                     !- Thickness {m}
  0.0432,                                 !- Conductivity {W/m-K}
  91,                                     !- Density {kg/m3}
  836.999999999999,                       !- Specific Heat {J/kg-K}
  0.9,                                    !- Thermal Absorptance
  0.5,                                    !- Solar Absorptance
  0.5;                                    !- Visible Absorptance

OS:Construction,
  {92750717-57d1-4209-9f1a-893448f1ecf7}, !- Handle
  ASHRAE 189.1-2009 ExtWall Mass ClimateZone 4, !- Name
  ,                                       !- Surface Rendering Name
  {2452c43c-404b-46fd-8f19-957d4ef5bafb}, !- Layer 1
  {28f1cc65-dea3-4d88-ae9f-6511446fdb2c}, !- Layer 2
  {033dc281-d1a2-409f-98c5-97bc01141d91}, !- Layer 3
  {701dcb40-fa9c-4ac1-bf40-695156ddd355}; !- Layer 4

OS:StandardsInformation:Construction,
  {770ee1e0-112c-400d-ba26-1d045017c94f}, !- Handle
  {92750717-57d1-4209-9f1a-893448f1ecf7}, !- Construction Name
  ExteriorWall,                           !- Intended Surface Type
  Mass;                                   !- Standards Construction Type

OS:Material,
  {033dc281-d1a2-409f-98c5-97bc01141d91}, !- Handle
  Wall Insulation [37],                   !- Name
  MediumRough,                            !- Roughness
  0.0680999999999999,                     !- Thickness {m}
  0.0432,                                 !- Conductivity {W/m-K}
  91,                                     !- Density {kg/m3}
  836.999999999999,                       !- Specific Heat {J/kg-K}
  0.9,                                    !- Thermal Absorptance
  0.5,                                    !- Solar Absorptance
  0.5;                                    !- Visible Absorptance

OS:Construction,
  {4a48192f-be56-4f5a-a0fd-db2e40adbb00}, !- Handle
  ASHRAE 189.1-2009 ExtWall Mass ClimateZone 5, !- Name
  ,                                       !- Surface Rendering Name
  {2452c43c-404b-46fd-8f19-957d4ef5bafb}, !- Layer 1
  {28f1cc65-dea3-4d88-ae9f-6511446fdb2c}, !- Layer 2
  {04859244-91cc-46be-8f6b-8cf532176e10}, !- Layer 3
  {701dcb40-fa9c-4ac1-bf40-695156ddd355}; !- Layer 4

OS:StandardsInformation:Construction,
  {e5e843cf-9db9-4bdb-befc-819377d7a6df}, !- Handle
  {4a48192f-be56-4f5a-a0fd-db2e40adbb00}, !- Construction Name
  ExteriorWall,                           !- Intended Surface Type
  Mass;                                   !- Standards Construction Type

OS:Material,
  {04859244-91cc-46be-8f6b-8cf532176e10}, !- Handle
  Wall Insulation [40],                   !- Name
  MediumRough,                            !- Roughness
  0.0793999999999999,                     !- Thickness {m}
  0.0432,                                 !- Conductivity {W/m-K}
  91,                                     !- Density {kg/m3}
  836.999999999999,                       !- Specific Heat {J/kg-K}
  0.9,                                    !- Thermal Absorptance
  0.5,                                    !- Solar Absorptance
  0.5;                                    !- Visible Absorptance

OS:Construction,
  {2f45afdf-d478-4abb-b2e5-facd1d3a8d60}, !- Handle
  ASHRAE 189.1-2009 ExtWall Mass ClimateZone 6, !- Name
  ,                                       !- Surface Rendering Name
  {2452c43c-404b-46fd-8f19-957d4ef5bafb}, !- Layer 1
  {28f1cc65-dea3-4d88-ae9f-6511446fdb2c}, !- Layer 2
  {37864f19-2b30-4780-8d9b-6110ca77fee9}, !- Layer 3
  {701dcb40-fa9c-4ac1-bf40-695156ddd355}; !- Layer 4

OS:StandardsInformation:Construction,
  {dd45045e-8286-4dbd-ada2-4b05511e2a7b}, !- Handle
  {2f45afdf-d478-4abb-b2e5-facd1d3a8d60}, !- Construction Name
  ExteriorWall,                           !- Intended Surface Type
  Mass;                                   !- Standards Construction Type

OS:Material,
  {37864f19-2b30-4780-8d9b-6110ca77fee9}, !- Handle
  Wall Insulation [42],                   !- Name
  MediumRough,                            !- Roughness
  0.0913999999999999,                     !- Thickness {m}
  0.0432,                                 !- Conductivity {W/m-K}
  91,                                     !- Density {kg/m3}
  836.999999999999,                       !- Specific Heat {J/kg-K}
  0.9,                                    !- Thermal Absorptance
  0.5,                                    !- Solar Absorptance
  0.5;                                    !- Visible Absorptance

OS:Construction,
  {0a1b09f5-72c8-448c-bf3d-95f31f9cf486}, !- Handle
  ASHRAE 189.1-2009 ExtWall Mass ClimateZone 7-8, !- Name
  ,                                       !- Surface Rendering Name
  {2452c43c-404b-46fd-8f19-957d4ef5bafb}, !- Layer 1
  {28f1cc65-dea3-4d88-ae9f-6511446fdb2c}, !- Layer 2
  {47afdeb2-d32b-454d-af75-904994b06a3c}, !- Layer 3
  {701dcb40-fa9c-4ac1-bf40-695156ddd355}; !- Layer 4

OS:StandardsInformation:Construction,
  {f6cb416b-4b3e-4ff7-8b6b-abd223b33bf5}, !- Handle
  {0a1b09f5-72c8-448c-bf3d-95f31f9cf486}, !- Construction Name
  ExteriorWall,                           !- Intended Surface Type
  Mass;                                   !- Standards Construction Type

OS:Material,
  {47afdeb2-d32b-454d-af75-904994b06a3c}, !- Handle
  Wall Insulation [44],                   !- Name
  MediumRough,                            !- Roughness
  0.1104,                                 !- Thickness {m}
  0.0432,                                 !- Conductivity {W/m-K}
  91,                                     !- Density {kg/m3}
  836.999999999999,                       !- Specific Heat {J/kg-K}
  0.9,                                    !- Thermal Absorptance
  0.5,                                    !- Solar Absorptance
  0.5;                                    !- Visible Absorptance

OS:Construction,
  {c4d9d14b-7b3d-4d4c-a6b0-6fb1b4ea4671}, !- Handle
  ASHRAE 189.1-2009 ExtWall Mass ClimateZone alt-res 1, !- Name
  ,                                       !- Surface Rendering Name
  {2452c43c-404b-46fd-8f19-957d4ef5bafb}, !- Layer 1
  {28f1cc65-dea3-4d88-ae9f-6511446fdb2c}, !- Layer 2
  {161a8215-f363-4a5f-90cc-c82dc48f46cd}, !- Layer 3
  {701dcb40-fa9c-4ac1-bf40-695156ddd355}; !- Layer 4

OS:StandardsInformation:Construction,
  {8c4c6fe7-dd02-4ada-bf0b-8bad805f1954}, !- Handle
  {c4d9d14b-7b3d-4d4c-a6b0-6fb1b4ea4671}, !- Construction Name
  ExteriorWall,                           !- Intended Surface Type
  Mass;                                   !- Standards Construction Type

OS:Construction,
  {6d643bcc-83f8-468a-9301-7bed55c896a6}, !- Handle
  ASHRAE 189.1-2009 ExtWall Mass ClimateZone alt-res 2, !- Name
  ,                                       !- Surface Rendering Name
  {2452c43c-404b-46fd-8f19-957d4ef5bafb}, !- Layer 1
  {28f1cc65-dea3-4d88-ae9f-6511446fdb2c}, !- Layer 2
  {8accbfe8-9b65-4f20-a556-2303fabc7e06}, !- Layer 3
  {701dcb40-fa9c-4ac1-bf40-695156ddd355}; !- Layer 4

OS:StandardsInformation:Construction,
  {8f9e00f4-d609-4036-86dd-373ff3685e47}, !- Handle
  {6d643bcc-83f8-468a-9301-7bed55c896a6}, !- Construction Name
  ExteriorWall,                           !- Intended Surface Type
  Mass;                                   !- Standards Construction Type

OS:Construction,
  {d9e5ddbc-188e-435f-9551-b53a81416695}, !- Handle
  ASHRAE 189.1-2009 ExtWall Mass ClimateZone alt-res 3, !- Name
  ,                                       !- Surface Rendering Name
  {2452c43c-404b-46fd-8f19-957d4ef5bafb}, !- Layer 1
  {28f1cc65-dea3-4d88-ae9f-6511446fdb2c}, !- Layer 2
  {033dc281-d1a2-409f-98c5-97bc01141d91}, !- Layer 3
  {701dcb40-fa9c-4ac1-bf40-695156ddd355}; !- Layer 4

OS:StandardsInformation:Construction,
  {433dd0a3-7ebe-4b65-a707-737916de19d0}, !- Handle
  {d9e5ddbc-188e-435f-9551-b53a81416695}, !- Construction Name
  ExteriorWall,                           !- Intended Surface Type
  Mass;                                   !- Standards Construction Type

OS:Construction,
  {79fc6624-559f-44c2-aece-c137de740635}, !- Handle
  ASHRAE 189.1-2009 ExtWall Mass ClimateZone alt-res 4, !- Name
  ,                                       !- Surface Rendering Name
  {2452c43c-404b-46fd-8f19-957d4ef5bafb}, !- Layer 1
  {28f1cc65-dea3-4d88-ae9f-6511446fdb2c}, !- Layer 2
  {04859244-91cc-46be-8f6b-8cf532176e10}, !- Layer 3
  {701dcb40-fa9c-4ac1-bf40-695156ddd355}; !- Layer 4

OS:StandardsInformation:Construction,
  {6d6aade5-f5fa-4f35-a62e-917a5777ea59}, !- Handle
  {79fc6624-559f-44c2-aece-c137de740635}, !- Construction Name
  ExteriorWall,                           !- Intended Surface Type
  Mass;                                   !- Standards Construction Type

OS:Construction,
  {6c9bb853-aee1-4d89-8144-f33b547795f0}, !- Handle
  ASHRAE 189.1-2009 ExtWall Mass ClimateZone alt-res 5, !- Name
  ,                                       !- Surface Rendering Name
  {2452c43c-404b-46fd-8f19-957d4ef5bafb}, !- Layer 1
  {28f1cc65-dea3-4d88-ae9f-6511446fdb2c}, !- Layer 2
  {37864f19-2b30-4780-8d9b-6110ca77fee9}, !- Layer 3
  {701dcb40-fa9c-4ac1-bf40-695156ddd355}; !- Layer 4

OS:StandardsInformation:Construction,
  {17435ddf-0276-4437-9c42-395b35582694}, !- Handle
  {6c9bb853-aee1-4d89-8144-f33b547795f0}, !- Construction Name
  ExteriorWall,                           !- Intended Surface Type
  Mass;                                   !- Standards Construction Type

OS:Construction,
  {f9d6fe23-9cf4-4a35-895d-8ca5d276c710}, !- Handle
  ASHRAE 189.1-2009 ExtWall Mass ClimateZone alt-res 6, !- Name
  ,                                       !- Surface Rendering Name
  {2452c43c-404b-46fd-8f19-957d4ef5bafb}, !- Layer 1
  {28f1cc65-dea3-4d88-ae9f-6511446fdb2c}, !- Layer 2
  {47afdeb2-d32b-454d-af75-904994b06a3c}, !- Layer 3
  {701dcb40-fa9c-4ac1-bf40-695156ddd355}; !- Layer 4

OS:StandardsInformation:Construction,
  {bcb36709-2fdf-4534-a98a-7bf30c3f412c}, !- Handle
  {f9d6fe23-9cf4-4a35-895d-8ca5d276c710}, !- Construction Name
  ExteriorWall,                           !- Intended Surface Type
  Mass;                                   !- Standards Construction Type

OS:Construction,
  {35cf0648-c5a2-4408-a332-cb48e05e32d6}, !- Handle
  ASHRAE 189.1-2009 ExtWall Mass ClimateZone alt-res 7, !- Name
  ,                                       !- Surface Rendering Name
  {2452c43c-404b-46fd-8f19-957d4ef5bafb}, !- Layer 1
  {28f1cc65-dea3-4d88-ae9f-6511446fdb2c}, !- Layer 2
  {47afdeb2-d32b-454d-af75-904994b06a3c}, !- Layer 3
  {701dcb40-fa9c-4ac1-bf40-695156ddd355}; !- Layer 4

OS:StandardsInformation:Construction,
  {bc4a9186-b0bf-4019-9cd0-66160d90e4fc}, !- Handle
  {35cf0648-c5a2-4408-a332-cb48e05e32d6}, !- Construction Name
  ExteriorWall,                           !- Intended Surface Type