
OS:Version,
  {dce7ea00-27cb-424b-ac8f-0b6200b18027}, !- Handle
  1.1.2;                                  !- Version Identifier

OS:Schedule:Constant,
  {5b31371e-075a-43e5-b7df-93e6c5dbb53e}, !- Handle
  Always On Discrete,                     !- Name
  {a19aa1e9-5e4d-426d-ac44-c9b9e6fa6e18}, !- Schedule Type Limits Name
  1;                                      !- Value

OS:ScheduleTypeLimits,
  {a19aa1e9-5e4d-426d-ac44-c9b9e6fa6e18}, !- Handle
  Always On Discrete Limits,              !- Name
  0,                                      !- Lower Limit Value {BasedOnField A4}
  1,                                      !- Upper Limit Value {BasedOnField A4}
  Discrete,                               !- Numeric Type
  Availability;                           !- Unit Type

OS:Building,
  {8c09ff8f-5f75-4d27-9f7e-bf9a58538137}, ! Handle
  Mid-rise Apartment,                     ! Name
  ,                                       ! Building Type
  -0,                                     ! North Axis
  ,                                       ! Nominal Floor to Floor Height
  {a8b22029-3abd-433d-a33e-6f43e14315b0}, ! Space Type Name
  {d8bb940f-8539-4159-bb91-7e8dc2c01302}, ! Default Construction Set Name
  ;                                       ! Default Schedule Set Name

OS:Construction,
  {c29e5a6a-ff0f-47da-b00d-329ad77acc8e}, ! Handle
  000 AtticRoof ClimateZone 1-8,          ! Name
  {6224ba92-105c-4226-8382-363b0821e14c}, ! Surface Rendering Name
  {b76ca5ed-32de-4aae-8f80-f521ca8dfb35}, ! Layer 1
  {e7193b1b-28da-4cc7-b7d1-0cb0e674319f}; ! Layer 2

OS:Construction,
  {76db9171-03b6-41e7-a45e-2de62e14f86c}, ! Handle
  000 ExtSlabCarpet 4in ClimateZone 1-8,  ! Name
  {8346f012-6b5d-4b93-8393-7df99caede61}, ! Surface Rendering Name
  {340682d3-fa23-42a3-84c2-f1b90ba10569}, ! Layer 1
  {4b387cb3-3b9d-420b-93c3-f73961003e38}; ! Layer 2

OS:Construction,
  {75734416-74de-44eb-8bc3-9c46de672543}, ! Handle
  000 ExtSlabCarpet 8in ClimateZone 1-8,  ! Name
  {fa5b9fe7-7136-41c4-bcce-d93edcd375f1}, ! Surface Rendering Name
  {3b8955de-db03-40b3-a115-34ca19caca4b}, ! Layer 1
  {4b387cb3-3b9d-420b-93c3-f73961003e38}; ! Layer 2

OS:Construction,
  {3d22bfbd-4b1e-43d7-adf0-a0dcd62f9c8c}, ! Handle
  000 ExtSlab 4in ClimateZone 1-8,        ! Name
  {205442ac-8b4e-418b-8a40-63423181b171}, ! Surface Rendering Name
  {340682d3-fa23-42a3-84c2-f1b90ba10569}; ! Layer 1

OS:Construction,
  {0b90f925-a6c8-4bc4-be06-7363d22b64be}, ! Handle
  000 ExtSlab 8in ClimateZone 1-8,        ! Name
  {b136c5d3-4b5f-4f99-add4-98427901a44c}, ! Surface Rendering Name
  {3b8955de-db03-40b3-a115-34ca19caca4b}; ! Layer 1

OS:Construction,
  {7b149951-51f9-4749-baac-00ad64b70d18}, ! Handle
  000 Exterior Door,                      ! Name
  {1d3d209a-5bbd-4ab5-8301-9cf44208f93c}, ! Surface Rendering Name
  {d656bb33-c65d-4ed3-876b-ea436d48e2f4}, ! Layer 1
  {d484a6d2-f81c-4811-8152-397327621470}; ! Layer 2

OS:Construction,
  {fe2804bc-5dcc-45e8-9e85-48e1cc8c86ca}, ! Handle
  000 Exterior Floor,                     ! Name
  {a9306f34-df9a-4db6-aefa-74f885202def}, ! Surface Rendering Name
  {e29272c1-a444-44ad-9074-a9a1cbe73740}, ! Layer 1
  {e648d23c-a62f-4e42-922d-afb67bdceec7}; ! Layer 2

OS:Construction,
  {dfb3bd1b-2745-4bec-8f2f-b1e51edb9586}, ! Handle
  000 Exterior Roof,                      ! Name
  {044d1cba-0f44-429a-a109-1f399e70c462}, ! Surface Rendering Name
  {4868b20f-c8cf-4fbb-9f17-5a915fb20760}, ! Layer 1
  {a0e88762-b66d-4033-bab8-a0a894b35c81}, ! Layer 2
  {e09b8308-cfbf-42ed-8164-900ec0911ef3}; ! Layer 3

OS:Construction,
  {ff0e0e37-2a18-4305-a896-da2fe8dbbc6b}, ! Handle
  000 Exterior Wall,                      ! Name
  {c19d7ad0-5ba7-446c-9f49-8a0ab28ab44b}, ! Surface Rendering Name
  {1e74d8ba-5926-409b-812c-38dc1194d5e1}, ! Layer 1
  {e648d23c-a62f-4e42-922d-afb67bdceec7}, ! Layer 2
  {e29272c1-a444-44ad-9074-a9a1cbe73740}, ! Layer 3
  {25ace1c7-e946-4fd0-bf24-54a1c7d004d6}, ! Layer 4
  {b9780731-b0c4-4ebe-a967-4b849e2ee99c}; ! Layer 5

OS:Construction,
  {f11069f4-0474-44b0-b506-bbc4dab261d1}, ! Handle
  000 Exterior Window,                    ! Name
  {3b97d8ed-022b-4615-89aa-0363397aae80}, ! Surface Rendering Name
  {a0b4aec3-6850-4d4e-ab71-939256a6feef}, ! Layer 1
  {3d19d2fc-f05c-48bf-bfd3-2fa33b074414}, ! Layer 2
  {a0b4aec3-6850-4d4e-ab71-939256a6feef}; ! Layer 3

OS:Construction,
  {abac3a72-9641-497d-a59c-b33d2c479b73}, ! Handle
  000 Interior Ceiling,                   ! Name
  {3782cc49-4b33-44cb-aa32-dac604bd2b98}, ! Surface Rendering Name
  {4868b20f-c8cf-4fbb-9f17-5a915fb20760}, ! Layer 1
  {a0e88762-b66d-4033-bab8-a0a894b35c81}, ! Layer 2
  {e09b8308-cfbf-42ed-8164-900ec0911ef3}; ! Layer 3

OS:Construction,
  {c3835d8b-8240-4d9b-bbeb-b3069e25ae3b}, ! Handle
  000 Interior Door,                      ! Name
  {bf57712a-7563-4c48-93a4-6b8f894d5c8e}, ! Surface Rendering Name
  {eb8c255e-5fed-4488-90a4-d75e66ae9ac6}; ! Layer 1

OS:Construction,
  {44ff3b49-9440-4330-b60c-c350f4db01be}, ! Handle
  000 Interior Floor,                     ! Name
  {bda01685-f920-4284-9e4b-f859eb0c1cfc}, ! Surface Rendering Name
  {e09b8308-cfbf-42ed-8164-900ec0911ef3}, ! Layer 1
  {a0e88762-b66d-4033-bab8-a0a894b35c81}, ! Layer 2
  {4868b20f-c8cf-4fbb-9f17-5a915fb20760}; ! Layer 3

OS:Construction,
  {752112b0-37fe-4a2f-ae7c-5b83e2f18d43}, ! Handle
  000 Interior Partition,                 ! Name
  {db356a5e-b978-47b0-94df-3a21cebda84f}, ! Surface Rendering Name
  {eb8c255e-5fed-4488-90a4-d75e66ae9ac6}; ! Layer 1

OS:Construction,
  {38d66d23-0ae3-4202-a09c-445240a91cf2}, ! Handle
  000 Interior Wall,                      ! Name
  {6aa0f551-d028-4958-a014-8381554a4daa}, ! Surface Rendering Name
  {b9780731-b0c4-4ebe-a967-4b849e2ee99c}, ! Layer 1
  {25ace1c7-e946-4fd0-bf24-54a1c7d004d6}, ! Layer 2
  {b9780731-b0c4-4ebe-a967-4b849e2ee99c}; ! Layer 3

OS:Construction,
  {d0af3d80-effa-4e66-a234-c16296270103}, ! Handle
  000 Interior Window,                    ! Name
  {6ae3d9a7-3ce1-40df-9392-aa2e449a5d47}, ! Surface Rendering Name
  {a0b4aec3-6850-4d4e-ab71-939256a6feef}; ! Layer 1

OS:Construction,
  {05f89dee-3463-41ef-8307-d364768222d7}, ! Handle
  ASHRAE 189.1-2009 AtticFloor ClimateZone 1-8, ! Name
  {7530033e-249b-428e-9b66-89bcd23269a5}, ! Surface Rendering Name
  {a5bdab58-5720-44e2-ae63-0e09648e8e8c}, ! Layer 1
  {de117dba-fafa-4621-961c-7aafc35b0e1c}, ! Layer 2
  {a5bdab58-5720-44e2-ae63-0e09648e8e8c}; ! Layer 3

OS:Construction,
  {8ab00f69-f5cf-43dd-b293-e781baf4c5ff}, ! Handle
  ASHRAE 189.1-2009 ExtRoof IEAD ClimateZone 1, ! Name
  {8f9113e8-cf3f-47d5-b80f-5631eb87f2ab}, ! Surface Rendering Name
  {b76ca5ed-32de-4aae-8f80-f521ca8dfb35}, ! Layer 1
  {6bd835ec-e40a-4931-9b54-a218ed81a724}, ! Layer 2
  {e7193b1b-28da-4cc7-b7d1-0cb0e674319f}; ! Layer 3

OS:Construction,
  {122fad33-9564-4b2d-9883-9acb1d57cd68}, ! Handle
  ASHRAE 189.1-2009 ExtRoof IEAD ClimateZone 2-5, ! Name
  {2bc1fb69-7f80-4f3f-b5aa-71372345ae6d}, ! Surface Rendering Name
  {b76ca5ed-32de-4aae-8f80-f521ca8dfb35}, ! Layer 1
  {2faa0ef1-eac0-4161-aad4-be297cb9173a}, ! Layer 2
  {e7193b1b-28da-4cc7-b7d1-0cb0e674319f}; ! Layer 3

OS:Construction,
  {fd363821-cbda-415d-a749-be04ab2fe457}, ! Handle
  ASHRAE 189.1-2009 ExtRoof IEAD ClimateZone 6, ! Name
  {bc8d9dc4-1d02-48b0-9c4c-4050aadad628}, ! Surface Rendering Name
  {b76ca5ed-32de-4aae-8f80-f521ca8dfb35}, ! Layer 1
  {287b8452-d6fc-4b68-a905-8823887e5bbc}, ! Layer 2
  {e7193b1b-28da-4cc7-b7d1-0cb0e674319f}; ! Layer 3

OS:Construction,
  {b944a445-eae6-49d7-a1d4-0edbab591bed}, ! Handle
  ASHRAE 189.1-2009 ExtRoof IEAD ClimateZone 7-8, ! Name
  {b3326f70-699d-4fee-8e46-420b7dbe09ab}, ! Surface Rendering Name
  {b76ca5ed-32de-4aae-8f80-f521ca8dfb35}, ! Layer 1
  {38f0b2d4-9cbd-44c8-aae1-17fa2cd0bec3}, ! Layer 2
  {e7193b1b-28da-4cc7-b7d1-0cb0e674319f}; ! Layer 3

OS:Construction,
  {8df9e66d-06c2-4ac0-b683-f479fecab866}, ! Handle
  ASHRAE 189.1-2009 ExtRoof Metal ClimateZone 1, ! Name
  {925be357-8773-4021-b342-cc38a3fafe3d}, ! Surface Rendering Name
  {7a72d8c9-2954-491d-b59f-1002f8122533}, ! Layer 1
  {b5864abb-4fe5-4c99-beeb-297777da1646}; ! Layer 2

OS:Construction,
  {518607f6-255b-46dd-9bf6-92c4c8222d50}, ! Handle
  ASHRAE 189.1-2009 ExtRoof Metal ClimateZone 2-5, ! Name
  {60afd1eb-b6ba-4535-b53a-01ce822d6afe}, ! Surface Rendering Name
  {7a72d8c9-2954-491d-b59f-1002f8122533}, ! Layer 1
  {922ad34a-4a1e-4b97-aba2-0773d7615ef5}; ! Layer 2

OS:Construction,
  {4d7b6c6c-e08e-44aa-ab02-cf2ed087f975}, ! Handle
  ASHRAE 189.1-2009 ExtRoof Metal ClimateZone 6, ! Name
  {0a0ef514-9178-4d06-be6d-8f75b732f95a}, ! Surface Rendering Name
  {7a72d8c9-2954-491d-b59f-1002f8122533}, ! Layer 1
  {953b9785-ec8f-44ff-a77d-978567c5891d}; ! Layer 2

OS:Construction,
  {6d99cfce-856b-4134-aa84-65e2a605a411}, ! Handle
  ASHRAE 189.1-2009 ExtRoof Metal ClimateZone 7-8, ! Name
  {ff92b4fa-eff7-4b15-bd0b-78d5e404e97d}, ! Surface Rendering Name
  {7a72d8c9-2954-491d-b59f-1002f8122533}, ! Layer 1
  {f13390b0-dec6-4d07-a40f-c3f119bbcb76}; ! Layer 2

OS:Construction,
  {038bb37d-ebb6-4e70-a8d0-becae4fdf632}, ! Handle
  ASHRAE 189.1-2009 ExtWall Mass ClimateZone 1, ! Name
  {321cdc12-31ab-4e54-80c2-623753e56ef3}, ! Surface Rendering Name
  {84103835-b80c-4a1f-9850-36c9bbed793b}, ! Layer 1
  {5c516ae9-381d-4fe4-aca0-3950f38aa7b0}, ! Layer 2
  {2fa83d73-9db4-4d72-814d-b267185d95cc}, ! Layer 3
  {a5bdab58-5720-44e2-ae63-0e09648e8e8c}; ! Layer 4

OS:Construction,
  {7733fc21-cbbc-4da9-80ff-e162abaa69e6}, ! Handle
  ASHRAE 189.1-2009 ExtWall Mass ClimateZone 2, ! Name
  {44abf8ac-7b9a-4690-aabe-0bafce6c3aa4}, ! Surface Rendering Name
  {84103835-b80c-4a1f-9850-36c9bbed793b}, ! Layer 1
  {5c516ae9-381d-4fe4-aca0-3950f38aa7b0}, ! Layer 2
  {dbb15dfc-877b-4b2b-8c28-e2f66633277c}, ! Layer 3
  {a5bdab58-5720-44e2-ae63-0e09648e8e8c}; ! Layer 4

OS:Construction,
  {63c98a12-dca4-4531-aaa5-9bee5e43faed}, ! Handle
  ASHRAE 189.1-2009 ExtWall Mass ClimateZone 3, ! Name
  {ea04a69f-a4c3-48ee-b832-8fa97a8197cd}, ! Surface Rendering Name
  {84103835-b80c-4a1f-9850-36c9bbed793b}, ! Layer 1
  {5c516ae9-381d-4fe4-aca0-3950f38aa7b0}, ! Layer 2
  {f676d332-839f-4f54-94ec-517aaa1648e5}, ! Layer 3
  {a5bdab58-5720-44e2-ae63-0e09648e8e8c}; ! Layer 4

OS:Construction,
  {e3702ddd-8f85-4386-8038-21f2b081fb19}, ! Handle
  ASHRAE 189.1-2009 ExtWall Mass ClimateZone 4, ! Name
  {d7d4d66e-5bfa-4598-a7ae-3d09c40b9b91}, ! Surface Rendering Name
  {84103835-b80c-4a1f-9850-36c9bbed793b}, ! Layer 1
  {5c516ae9-381d-4fe4-aca0-3950f38aa7b0}, ! Layer 2
  {0be0f463-ff1c-40c8-b66a-cf2c96feeafa}, ! Layer 3
  {a5bdab58-5720-44e2-ae63-0e09648e8e8c}; ! Layer 4

OS:Construction,
  {8dc2bc90-700f-47cc-96e1-c66b27cc003c}, ! Handle
  ASHRAE 189.1-2009 ExtWall Mass ClimateZone 5, ! Name
  {ccde6fcd-5809-4f50-a3e0-6feed8a711f8}, ! Surface Rendering Name
  {84103835-b80c-4a1f-9850-36c9bbed793b}, ! Layer 1
  {5c516ae9-381d-4fe4-aca0-3950f38aa7b0}, ! Layer 2
  {ad43c12c-f59f-491b-b146-e6f022e4f4c1}, ! Layer 3
  {a5bdab58-5720-44e2-ae63-0e09648e8e8c}; ! Layer 4

OS:Construction,
  {70da1215-4903-4660-91a7-61020d6d9f8e}, ! Handle
  ASHRAE 189.1-2009 ExtWall Mass ClimateZone 6, ! Name
  {5bf002f6-ff7c-49d4-a9f8-f11f7476e1f7}, ! Surface Rendering Name
  {84103835-b80c-4a1f-9850-36c9bbed793b}, ! Layer 1
  {5c516ae9-381d-4fe4-aca0-3950f38aa7b0}, ! Layer 2
  {c1d10fa8-f6cb-4d0d-814e-ad9c559ea872}, ! Layer 3
  {a5bdab58-5720-44e2-ae63-0e09648e8e8c}; ! Layer 4

OS:Construction,
  {fdc7d5c0-7f77-4ad6-9151-8906a409f227}, ! Handle
  ASHRAE 189.1-2009 ExtWall Mass ClimateZone 7-8, ! Name
  {354f2316-4dce-480b-923a-fd1de8b75247}, ! Surface Rendering Name
  {84103835-b80c-4a1f-9850-36c9bbed793b}, ! Layer 1
  {5c516ae9-381d-4fe4-aca0-3950f38aa7b0}, ! Layer 2
  {efb474ab-12af-49d4-aff4-ed24d448c785}, ! Layer 3
  {a5bdab58-5720-44e2-ae63-0e09648e8e8c}; ! Layer 4

OS:Construction,
  {a421b837-346d-4b25-b619-7d86f8ae09b0}, ! Handle
  ASHRAE 189.1-2009 ExtWall Mass ClimateZone alt-res 1, ! Name
  {b3613855-1679-4aef-8065-2561836268a9}, ! Surface Rendering Name
  {84103835-b80c-4a1f-9850-36c9bbed793b}, ! Layer 1
  {5c516ae9-381d-4fe4-aca0-3950f38aa7b0}, ! Layer 2
  {dbb15dfc-877b-4b2b-8c28-e2f66633277c}, ! Layer 3
  {a5bdab58-5720-44e2-ae63-0e09648e8e8c}; ! Layer 4

OS:Construction,
  {160ce7fb-df71-4e54-a06a-08e461a014c3}, ! Handle
  ASHRAE 189.1-2009 ExtWall Mass ClimateZone alt-res 2, ! Name
  {d819322a-b277-4062-82e3-50a1a00f41ca}, ! Surface Rendering Name
  {84103835-b80c-4a1f-9850-36c9bbed793b}, ! Layer 1
  {5c516ae9-381d-4fe4-aca0-3950f38aa7b0}, ! Layer 2
  {f676d332-839f-4f54-94ec-517aaa1648e5}, ! Layer 3
  {a5bdab58-5720-44e2-ae63-0e09648e8e8c}; ! Layer 4

OS:Construction,
  {db444cb2-2b85-468f-a0a9-64b778a7603f}, ! Handle
  ASHRAE 189.1-2009 ExtWall Mass ClimateZone alt-res 3, ! Name
  {b82f56e3-4586-415d-aafc-004af0fa6fd0}, ! Surface Rendering Name
  {84103835-b80c-4a1f-9850-36c9bbed793b}, ! Layer 1
  {5c516ae9-381d-4fe4-aca0-3950f38aa7b0}, ! Layer 2
  {0be0f463-ff1c-40c8-b66a-cf2c96feeafa}, ! Layer 3
  {a5bdab58-5720-44e2-ae63-0e09648e8e8c}; ! Layer 4

OS:Construction,
  {0a53a792-8fd1-404f-b341-1dd8a839ff26}, ! Handle
  ASHRAE 189.1-2009 ExtWall Mass ClimateZone alt-res 4, ! Name
  {546218e2-a117-49e6-8153-2029cd2b192a}, ! Surface Rendering Name
  {84103835-b80c-4a1f-9850-36c9bbed793b}, ! Layer 1
  {5c516ae9-381d-4fe4-aca0-3950f38aa7b0}, ! Layer 2
  {ad43c12c-f59f-491b-b146-e6f022e4f4c1}, ! Layer 3
  {a5bdab58-5720-44e2-ae63-0e09648e8e8c}; ! Layer 4

OS:Construction,
  {fbb0f3c5-3f63-46da-97f4-2e73feb0f939}, ! Handle
  ASHRAE 189.1-2009 ExtWall Mass ClimateZone alt-res 5, ! Name
  {4deb2932-35d3-4241-90fe-9328bfa30dc9}, ! Surface Rendering Name
  {84103835-b80c-4a1f-9850-36c9bbed793b}, ! Layer 1
  {5c516ae9-381d-4fe4-aca0-3950f38aa7b0}, ! Layer 2
  {c1d10fa8-f6cb-4d0d-814e-ad9c559ea872}, ! Layer 3
  {a5bdab58-5720-44e2-ae63-0e09648e8e8c}; ! Layer 4

OS:Construction,
  {fe9ea86f-2a69-442b-b5a4-c6d248a38044}, ! Handle
  ASHRAE 189.1-2009 ExtWall Mass ClimateZone alt-res 6, ! Name
  {f4449744-5b33-4566-a7ab-1603a5e0d48d}, ! Surface Rendering Name
  {84103835-b80c-4a1f-9850-36c9bbed793b}, ! Layer 1
  {5c516ae9-381d-4fe4-aca0-3950f38aa7b0}, ! Layer 2
  {efb474ab-12af-49d4-aff4-ed24d448c785}, ! Layer 3
  {a5bdab58-5720-44e2-ae63-0e09648e8e8c}; ! Layer 4

OS:Construction,
  {92318dbe-5e61-4bcf-8965-a93087d5b98a}, ! Handle
  ASHRAE 189.1-2009 ExtWall Mass ClimateZone alt-res 7, ! Name
  {d93686a5-d401-4e9f-907a-254d42ae41b5}, ! Surface Rendering Name
  {84103835-b80c-4a1f-9850-36c9bbed793b}, ! Layer 1
  {5c516ae9-381d-4fe4-aca0-3950f38aa7b0}, ! Layer 2
  {efb474ab-12af-49d4-aff4-ed24d448c785}, ! Layer 3
  {a5bdab58-5720-44e2-ae63-0e09648e8e8c}; ! Layer 4

OS:Construction,
  {b2ee15c7-ed57-4ebe-b096-ec6d31dd7786}, ! Handle
  ASHRAE 189.1-2009 ExtWall Mass ClimateZone alt-res 8, ! Name
  {094a1680-0893-44ab-8f57-8feab256245b}, ! Surface Rendering Name
  {84103835-b80c-4a1f-9850-36c9bbed793b}, ! Layer 1
  {5c516ae9-381d-4fe4-aca0-3950f38aa7b0}, ! Layer 2
  {d0c42572-1b4d-4710-8a64-426252964348}, ! Layer 3
  {a5bdab58-5720-44e2-ae63-0e09648e8e8c}; ! Layer 4

OS:Construction,
  {b41a3982-73de-43d6-8e84-c2a9c0c36414}, ! Handle
  ASHRAE 189.1-2009 ExtWall Metal ClimateZone 1-3, ! Name
  {9aba2c1a-85e2-4f3b-9c28-65b29463b491}, ! Surface Rendering Name
  {de794fdc-231d-4d97-b69e-b924733915e4}, ! Layer 1
  {ae87d85b-a47d-413d-aefe-b37b73dc15f6}, ! Layer 2
  {a5bdab58-5720-44e2-ae63-0e09648e8e8c}; ! Layer 3

OS:Construction,
  {8f469d4a-85cc-4b39-9a9e-1a5bad9613f5}, ! Handle
  ASHRAE 189.1-2009 ExtWall Metal ClimateZone 4-8, ! Name
  {0b4e4ceb-d432-46b6-8004-4246a0f6af96}, ! Surface Rendering Name
  {de794fdc-231d-4d97-b69e-b924733915e4}, ! Layer 1
  {b577355d-9d95-42c4-baae-b8fffb8a0250}, ! Layer 2
  {a5bdab58-5720-44e2-ae63-0e09648e8e8c}; ! Layer 3

OS:Construction,
  {3f5ee500-62b3-4b5d-a319-598b9a7e5511}, ! Handle
  ASHRAE 189.1-2009 ExtWall SteelFrame ClimateZone 1-3, ! Name
  {7df9d32e-1dc3-4a3a-9afd-147b707bfb61}, ! Surface Rendering Name
  {b2c51e89-944a-47e1-a7f2-8bc9ec54823d}, ! Layer 1
  {84454299-f580-41fc-aa34-a61cf3310e02}, ! Layer 2
  {a5bdab58-5720-44e2-ae63-0e09648e8e8c}; ! Layer 3

OS:Construction,
  {6bd3009c-10ba-413e-b91e-ee608bb6263e}, ! Handle
  ASHRAE 189.1-2009 ExtWall SteelFrame ClimateZone 4-8, ! Name
  {d804bb6d-5066-49e9-8f6b-6a36563cbb08}, ! Surface Rendering Name
  {b2c51e89-944a-47e1-a7f2-8bc9ec54823d}, ! Layer 1
  {250c0c74-7daa-4468-aed0-2145e9e29742}, ! Layer 2
  {a5bdab58-5720-44e2-ae63-0e09648e8e8c}; ! Layer 3

OS:Construction,
  {1c2fec20-73c5-4367-a73f-b4f91e71fdab}, ! Handle
  ASHRAE 189.1-2009 ExtWall WoodFrame ClimateZone 1-4, ! Name
  {f0ff4ac3-83f0-4f95-aa10-7da720e2c2fb}, ! Surface Rendering Name
  {181e8f70-ef0d-4ce2-80c2-2dfcd154e3e1}, ! Layer 1
  {aa5fffed-f1f3-481c-b76f-4ac6e546accb}, ! Layer 2
  {a5bdab58-5720-44e2-ae63-0e09648e8e8c}; ! Layer 3

OS:Construction,
  {267c6bce-5480-4e78-bef9-c0c7758b6650}, ! Handle
  ASHRAE 189.1-2009 ExtWall WoodFrame ClimateZone 5, ! Name
  {e68f06fe-153d-48b1-bf31-85ecf2c470d6}, ! Surface Rendering Name
  {181e8f70-ef0d-4ce2-80c2-2dfcd154e3e1}, ! Layer 1
  {90768191-f8e4-4d1f-a078-1f2fee911e34}, ! Layer 2
  {a5bdab58-5720-44e2-ae63-0e09648e8e8c}; ! Layer 3

OS:Construction,
  {0f6e7a5e-c133-4e2d-bce5-7657e4f92ea6}, ! Handle
  ASHRAE 189.1-2009 ExtWall WoodFrame ClimateZone 6-8, ! Name
  {3da47c06-7c99-463d-a548-af5d4e6ea43b}, ! Surface Rendering Name
  {181e8f70-ef0d-4ce2-80c2-2dfcd154e3e1}, ! Layer 1
  {a79f5ce0-a8b9-4fe7-abea-e91069da8b60}, ! Layer 2
  {a5bdab58-5720-44e2-ae63-0e09648e8e8c}; ! Layer 3

OS:Construction,
  {9b10deab-ad8b-4ac9-805c-d9df6599b04b}, ! Handle
  ASHRAE 189.1-2009 ExtWindow ClimateZone 1, ! Name
  {b51e0233-802a-49dd-9373-cc58daa50cc9}, ! Surface Rendering Name
  {1cffb696-dfae-4107-9ddd-16bffeae3a74}; ! Layer 1

OS:Construction,
  {ce5f1343-69d7-426c-baf4-bd74903c8612}, ! Handle
  ASHRAE 189.1-2009 ExtWindow ClimateZone 2, ! Name
  {8b8b2f48-4738-40b3-b5a2-f05d3964c504}, ! Surface Rendering Name
  {0f62398c-8e80-45dc-9b35-3e330b12d7c1}; ! Layer 1

OS:Construction,
  {b15598f8-884a-4126-9551-dc8bb0cf7d0e}, ! Handle
  ASHRAE 189.1-2009 ExtWindow ClimateZone 3, ! Name
  {f983b78a-8ae3-4d09-a1d4-4f7fb8e3be0b}, ! Surface Rendering Name
  {3e0bba1b-9ba3-409e-97d8-dee86d4a734e}; ! Layer 1

OS:Construction,
  {c9ac8834-4a49-482c-8562-889058069801}, ! Handle
  ASHRAE 189.1-2009 ExtWindow ClimateZone 4-5, ! Name
  {5f463227-f825-473a-8c18-43ff146bc0c6}, ! Surface Rendering Name
  {f0420c7d-b929-4347-832a-d4556bb4caab}; ! Layer 1

OS:Construction,
  {e7d07a11-0614-4996-93df-f767e90d79cf}, ! Handle
  ASHRAE 189.1-2009 ExtWindow ClimateZone 6, ! Name
  {85a04a00-9bc6-477e-8f00-c4098d5066b3}, ! Surface Rendering Name
  {26b25089-7900-4912-b885-1898172793b3}; ! Layer 1

OS:Construction,
  {e0210e04-7dff-4b8b-bcc0-18ab892b7699}, ! Handle
  ASHRAE 189.1-2009 ExtWindow ClimateZone 7-8, ! Name
  {3368ebeb-f380-4f56-807b-da94e3ce0ba9}, ! Surface Rendering Name
  {f5e5d518-c2da-41cb-9922-17c3fbaabee8}; ! Layer 1

OS:Construction,
  {18d51889-18d9-41bb-a50a-012f281e8e1e}, ! Handle
  ASHRAE 189.1-2009 ExtWindow ClimateZone alt-res 4-5, ! Name
  {8774efe5-3135-40eb-aeb1-58e311c23d9f}, ! Surface Rendering Name
  {26b25089-7900-4912-b885-1898172793b3}; ! Layer 1

OS:Construction,
  {b1ea0cee-aec0-4fb5-98da-92f03a7eda3b}, ! Handle
  ASHRAE 90.1-2004 AtticFloor ClimateZone 1-5, ! Name
  {ddc21683-4cca-47b5-9097-b0ef48e89969}, ! Surface Rendering Name
  {a5bdab58-5720-44e2-ae63-0e09648e8e8c}, ! Layer 1
  {7af4d132-8df1-4f43-bba7-7abb294fbdbf}, ! Layer 2
  {a5bdab58-5720-44e2-ae63-0e09648e8e8c}; ! Layer 3

OS:Construction,
  {f4f0cbef-f7d2-4925-a018-eb2b8a7be6f9}, ! Handle
  ASHRAE 90.1-2004 AtticFloor ClimateZone 6-8, ! Name
  {61266174-693b-4285-9bcc-f145c2ffe017}, ! Surface Rendering Name
  {a5bdab58-5720-44e2-ae63-0e09648e8e8c}, ! Layer 1
  {7d41e364-f420-4605-9260-7ab4e33b50be}, ! Layer 2
  {a5bdab58-5720-44e2-ae63-0e09648e8e8c}; ! Layer 3

OS:Construction,
  {d08bfbe0-219d-4baa-a274-806aae87ec20}, ! Handle
  ASHRAE 90.1-2004 ExtRoof IEAD ClimateZone 1-4, ! Name
  {0a526f2b-e83b-43b3-90b4-493b6d466056}, ! Surface Rendering Name
  {b76ca5ed-32de-4aae-8f80-f521ca8dfb35}, ! Layer 1
  {9bdc18c4-24cc-4e3e-a0d1-29ae9d32eb96}, ! Layer 2
  {e7193b1b-28da-4cc7-b7d1-0cb0e674319f}; ! Layer 3

OS:Construction,
  {93f87511-34ea-49f6-960f-3acfc6e2cec7}, ! Handle
  ASHRAE 90.1-2004 ExtRoof IEAD ClimateZone 5-6, ! Name
  {92ed3aa7-1c39-416c-afb5-59f062dd40b7}, ! Surface Rendering Name
  {b76ca5ed-32de-4aae-8f80-f521ca8dfb35}, ! Layer 1
  {68fb6637-2c8a-48d5-98b7-ddf9ade69e9d}, ! Layer 2
  {e7193b1b-28da-4cc7-b7d1-0cb0e674319f}; ! Layer 3

OS:Construction,
  {707a58b1-be87-4162-87de-bc1ba0a46bb2}, ! Handle
  ASHRAE 90.1-2004 ExtRoof IEAD ClimateZone 7, ! Name
  {05d5f825-551d-4205-a5c9-d76f1588cacd}, ! Surface Rendering Name
  {b76ca5ed-32de-4aae-8f80-f521ca8dfb35}, ! Layer 1
  {9bdc18c4-24cc-4e3e-a0d1-29ae9d32eb96}, ! Layer 2
  {e7193b1b-28da-4cc7-b7d1-0cb0e674319f}; ! Layer 3

OS:Construction,
  {d7d85057-f48a-489c-8238-a05e1e2540d2}, ! Handle
  ASHRAE 90.1-2004 ExtRoof IEAD ClimateZone 8, ! Name
  {5e4e2638-64e7-4441-8882-c1e649dbf04a}, ! Surface Rendering Name
  {b76ca5ed-32de-4aae-8f80-f521ca8dfb35}, ! Layer 1
  {d2ea48bd-9851-4379-9bcb-b938810a7b78}, ! Layer 2
  {e7193b1b-28da-4cc7-b7d1-0cb0e674319f}; ! Layer 3

OS:Construction,
  {6a33bc50-9455-42bb-9a12-f357f70c9e16}, ! Handle
  ASHRAE 90.1-2004 ExtRoof Metal ClimateZone 1, ! Name
  {bf2c45ef-aad5-4e35-914e-b7f79725c2dc}, ! Surface Rendering Name
  {7a72d8c9-2954-491d-b59f-1002f8122533}; ! Layer 1

OS:Construction,
  {ada6af05-f139-4d3c-aa8e-98071629466e}, ! Handle
  ASHRAE 90.1-2004 ExtRoof Metal ClimateZone 2, ! Name
  {21df46c9-b433-4a83-9454-c443492e862b}, ! Surface Rendering Name
  {7a72d8c9-2954-491d-b59f-1002f8122533}, ! Layer 1
  {111eb481-e9fb-477c-b732-b2cb43b28ce3}; ! Layer 2

OS:Construction,
  {47bef0b5-5389-4499-8175-b6dbefe2ba9d}, ! Handle
  ASHRAE 90.1-2004 ExtRoof Metal ClimateZone 3-4, ! Name
  {2b2a4191-73f4-425b-ae29-927f7dc858d5}, ! Surface Rendering Name
  {7a72d8c9-2954-491d-b59f-1002f8122533}, ! Layer 1
  {b540590c-6791-4869-993d-9f988e7ea7fd}; ! Layer 2

OS:Construction,
  {1c846e0b-0124-4df6-9bdc-459071db33a0}, ! Handle
  ASHRAE 90.1-2004 ExtRoof Metal ClimateZone 5-6, ! Name
  {dba89a7f-60d4-496e-8308-484f5af0248d}, ! Surface Rendering Name
  {7a72d8c9-2954-491d-b59f-1002f8122533}, ! Layer 1
  {5a6502c3-8829-4334-be4d-4b4723760ba7}; ! Layer 2

OS:Construction,
  {09b01145-fb38-4b13-86b3-9a02fadb324e}, ! Handle
  ASHRAE 90.1-2004 ExtRoof Metal ClimateZone 7, ! Name
  {9e82edb8-b1e3-49d8-8290-4959fd030db3}, ! Surface Rendering Name
  {7a72d8c9-2954-491d-b59f-1002f8122533}, ! Layer 1
  {b540590c-6791-4869-993d-9f988e7ea7fd}; ! Layer 2

OS:Construction,
  {49dce1ea-9003-4dd9-8d4d-e24f4317818e}, ! Handle
  ASHRAE 90.1-2004 ExtRoof Metal ClimateZone 8, ! Name
  {00ec48eb-4172-479f-bbf1-17877b40f4c2}, ! Surface Rendering Name
  {7a72d8c9-2954-491d-b59f-1002f8122533}, ! Layer 1
  {92541069-6226-4a81-b098-dd22a19ca095}; ! Layer 2

OS:Construction,
  {96c9e17e-60a8-440e-a15a-8817c88b29bf}, ! Handle
  ASHRAE 90.1-2004 ExtWall Mass ClimateZone 1-2, ! Name
  {c8b11d27-a026-4f3f-ad5e-a1928edf40d1}, ! Surface Rendering Name
  {84103835-b80c-4a1f-9850-36c9bbed793b}, ! Layer 1
  {6bb07062-9290-4b86-84d6-375f70bbe0ed}, ! Layer 2
  {a5bdab58-5720-44e2-ae63-0e09648e8e8c}; ! Layer 3

OS:Construction,
  {99db26d0-cff8-4d6a-bf83-513627058224}, ! Handle
  ASHRAE 90.1-2004 ExtWall Mass ClimateZone 3-4, ! Name
  {6d4d7c83-f7b6-493e-a5a4-81e5e83868bd}, ! Surface Rendering Name
  {84103835-b80c-4a1f-9850-36c9bbed793b}, ! Layer 1
  {6bb07062-9290-4b86-84d6-375f70bbe0ed}, ! Layer 2
  {bafd64c0-c782-4739-8f4b-e167611c399a}, ! Layer 3
  {a5bdab58-5720-44e2-ae63-0e09648e8e8c}; ! Layer 4

OS:Construction,
  {d280996c-f546-4e86-9ee2-6f16e86d96ff}, ! Handle
  ASHRAE 90.1-2004 ExtWall Mass ClimateZone 5, ! Name
  {81754729-c0f8-4e36-a579-9bf25cf0c3a6}, ! Surface Rendering Name
  {84103835-b80c-4a1f-9850-36c9bbed793b}, ! Layer 1
  {6bb07062-9290-4b86-84d6-375f70bbe0ed}, ! Layer 2
  {b000d35b-2348-4d25-80d4-fa5616831211}, ! Layer 3
  {a5bdab58-5720-44e2-ae63-0e09648e8e8c}; ! Layer 4

OS:Construction,
  {cd0dd257-4959-42ae-b858-01bccfae1077}, ! Handle
  ASHRAE 90.1-2004 ExtWall Mass ClimateZone 6, ! Name
  {e94497f7-63f9-4958-ad6b-becbf97e4e09}, ! Surface Rendering Name
  {84103835-b80c-4a1f-9850-36c9bbed793b}, ! Layer 1
  {6bb07062-9290-4b86-84d6-375f70bbe0ed}, ! Layer 2
  {e7d93742-88a4-4683-8e18-11489bee8b8d}, ! Layer 3
  {a5bdab58-5720-44e2-ae63-0e09648e8e8c}; ! Layer 4

OS:Construction,
  {ad378d1f-1980-4caa-ae1e-1a6902b52ed8}, ! Handle
  ASHRAE 90.1-2004 ExtWall Mass ClimateZone 7, ! Name
  {edc2ab25-b679-4ce5-a76a-d27da4da9948}, ! Surface Rendering Name
  {84103835-b80c-4a1f-9850-36c9bbed793b}, ! Layer 1
  {6bb07062-9290-4b86-84d6-375f70bbe0ed}, ! Layer 2
  {ddf9e0bc-393c-4669-890f-428282d1a4e2}, ! Layer 3
  {a5bdab58-5720-44e2-ae63-0e09648e8e8c}; ! Layer 4

OS:Construction,
  {22ea48c8-2001-454b-b486-5e51ff855cf4}, ! Handle
  ASHRAE 90.1-2004 ExtWall Mass ClimateZone 8, ! Name
  {493b4002-fa34-4c63-a2fb-cb13c6748cf2}, ! Surface Rendering Name
  {84103835-b80c-4a1f-9850-36c9bbed793b}, ! Layer 1
  {6bb07062-9290-4b86-84d6-375f70bbe0ed}, ! Layer 2
  {499f89c0-70ba-4a9c-aaa4-406a5fb61ac5}, ! Layer 3
  {a5bdab58-5720-44e2-ae63-0e09648e8e8c}; ! Layer 4

OS:Construction,
  {4c217a02-e7ca-43fb-8ca5-83e94018c6d8}, ! Handle
  ASHRAE 90.1-2004 ExtWall Mass ClimateZone alt-res 1-2, ! Name
  {32bbe77b-a3fd-41c5-ba17-27f2697dfb12}, ! Surface Rendering Name
  {84103835-b80c-4a1f-9850-36c9bbed793b}, ! Layer 1
  {6bb07062-9290-4b86-84d6-375f70bbe0ed}, ! Layer 2
  {bafd64c0-c782-4739-8f4b-e167611c399a}, ! Layer 3
  {a5bdab58-5720-44e2-ae63-0e09648e8e8c}; ! Layer 4

OS:Construction,
  {6c00775a-06e0-469c-85ac-9eff1ba08169}, ! Handle
  ASHRAE 90.1-2004 ExtWall Mass ClimateZone alt-res 3, ! Name
  {d4909234-2423-4628-82a2-0fa5effa84e7}, ! Surface Rendering Name
  {84103835-b80c-4a1f-9850-36c9bbed793b}, ! Layer 1
  {6bb07062-9290-4b86-84d6-375f70bbe0ed}, ! Layer 2
  {b000d35b-2348-4d25-80d4-fa5616831211}, ! Layer 3
  {a5bdab58-5720-44e2-ae63-0e09648e8e8c}; ! Layer 4

OS:Construction,
  {688f76f8-afb8-4276-90f0-b6947e5e1c69}, ! Handle
  ASHRAE 90.1-2004 ExtWall Mass ClimateZone alt-res 4, ! Name
  {628a0fd6-6e48-4fa8-8226-22c88472d828}, ! Surface Rendering Name
  {84103835-b80c-4a1f-9850-36c9bbed793b}, ! Layer 1
  {6bb07062-9290-4b86-84d6-375f70bbe0ed}, ! Layer 2
  {e7d93742-88a4-4683-8e18-11489bee8b8d}, ! Layer 3
  {a5bdab58-5720-44e2-ae63-0e09648e8e8c}; ! Layer 4

OS:Construction,
  {dceca4d4-59a3-412e-8de8-67722c3fa8d7}, ! Handle
  ASHRAE 90.1-2004 ExtWall Mass ClimateZone alt-res 5-6, ! Name
  {219b3f42-f6a0-4870-a521-2b72b1c45911}, ! Surface Rendering Name
  {84103835-b80c-4a1f-9850-36c9bbed793b}, ! Layer 1
  {6bb07062-9290-4b86-84d6-375f70bbe0ed}, ! Layer 2
  {ddf9e0bc-393c-4669-890f-428282d1a4e2}, ! Layer 3
  {a5bdab58-5720-44e2-ae63-0e09648e8e8c}; ! Layer 4

OS:Construction,
  {d949419a-6f9d-4dac-9b01-0af89b77ab45}, ! Handle
  ASHRAE 90.1-2004 ExtWall Mass ClimateZone alt-res 7, ! Name
  {011ace36-a38b-401b-b91c-5ad91d811702}, ! Surface Rendering Name
  {84103835-b80c-4a1f-9850-36c9bbed793b}, ! Layer 1
  {6bb07062-9290-4b86-84d6-375f70bbe0ed}, ! Layer 2
  {499f89c0-70ba-4a9c-aaa4-406a5fb61ac5}, ! Layer 3
  {a5bdab58-5720-44e2-ae63-0e09648e8e8c}; ! Layer 4

OS:Construction,
  {ae8983be-517e-497f-9a27-a1086645de8b}, ! Handle
  ASHRAE 90.1-2004 ExtWall Mass ClimateZone alt-res 8, ! Name
  {7d021e51-e9f7-4c3b-ae12-2c6d04d65de0}, ! Surface Rendering Name
  {84103835-b80c-4a1f-9850-36c9bbed793b}, ! Layer 1
  {6bb07062-9290-4b86-84d6-375f70bbe0ed}, ! Layer 2
  {d512c012-d65e-4fa8-8e9e-c65d0fe18c01}, ! Layer 3
  {a5bdab58-5720-44e2-ae63-0e09648e8e8c}; ! Layer 4

OS:Construction,
  {d1aae82a-cd01-4858-b27a-5c0464194b3f}, ! Handle
  ASHRAE 90.1-2004 ExtWall Metal ClimateZone 1, ! Name
  {1fda7b20-e888-4642-b5fb-934eeefba050}, ! Surface Rendering Name
  {de794fdc-231d-4d97-b69e-b924733915e4}, ! Layer 1
  {a5bdab58-5720-44e2-ae63-0e09648e8e8c}; ! Layer 2

OS:Construction,
  {bab3cd8f-a842-4076-8efc-064e0d56ba9b}, ! Handle
  ASHRAE 90.1-2004 ExtWall Metal ClimateZone 2-3, ! Name
  {bd3a675b-7262-44dc-83a8-141aed907ba8}, ! Surface Rendering Name
  {de794fdc-231d-4d97-b69e-b924733915e4}, ! Layer 1
  {7ead97a3-350c-4440-8222-0c27058a6de5}, ! Layer 2
  {a5bdab58-5720-44e2-ae63-0e09648e8e8c}; ! Layer 3

OS:Construction,
  {89d664e2-81c4-4c82-b3bb-8361782bc16d}, ! Handle
  ASHRAE 90.1-2004 ExtWall Metal ClimateZone 4, ! Name
  {af85f7a4-5812-408d-a2f5-0c9c57d35636}, ! Surface Rendering Name
  {de794fdc-231d-4d97-b69e-b924733915e4}, ! Layer 1
  {df91dba1-132b-4dc4-845a-50bb0e6ea96c}, ! Layer 2
  {a5bdab58-5720-44e2-ae63-0e09648e8e8c}; ! Layer 3

OS:Construction,
  {9ee984f7-f75b-48a3-bdb7-f10db785f849}, ! Handle
  ASHRAE 90.1-2004 ExtWall Metal ClimateZone 5, ! Name
  {9da3d10c-05a2-402f-a9af-90aac37c8bd5}, ! Surface Rendering Name
  {de794fdc-231d-4d97-b69e-b924733915e4}, ! Layer 1
  {2dfd4ae7-c8b2-455f-a84a-66decc7e8799}, ! Layer 2
  {a5bdab58-5720-44e2-ae63-0e09648e8e8c}; ! Layer 3

OS:Construction,
  {3bc4be6c-80cd-4a57-a53a-f6ec20634707}, ! Handle
  ASHRAE 90.1-2004 ExtWall Metal ClimateZone 6-8, ! Name
  {d865e6cc-f6c3-4b03-9c02-b199d199e8f6}, ! Surface Rendering Name