
OS:Version,
  {d9fe879e-796c-4f3c-82f6-92ce5a419a0c}, !- Handle
  1.3.0;                                  !- Version Identifier

OS:Construction,
  {64bf24a2-e313-406b-98c8-1e7a2aa07de4}, !- Handle
  ASHRAE 189.1-2009 AtticFloor ClimateZone 1-8, !- Name
  ,                                       !- Surface Rendering Name
  {47eec1a3-d907-4853-a6c7-9f3e966c8ce6}, !- Layer 1
  {fc0b5a7d-accb-4f94-bc69-12c0c182be6a}, !- Layer 2
  {47eec1a3-d907-4853-a6c7-9f3e966c8ce6}; !- Layer 3

OS:StandardsInformation:Construction,
  {32ce770e-73bc-4881-98a5-1be053826862}, !- Handle
  {64bf24a2-e313-406b-98c8-1e7a2aa07de4}, !- Construction Name
  AtticFloor,                             !- Intended Surface Type
  WoodFramed;                             !- Standards Construction Type

OS:Material,
  {47eec1a3-d907-4853-a6c7-9f3e966c8ce6}, !- Handle
  1/2IN Gypsum,                           !- Name
  Smooth,                                 !- Roughness
  0.0127,                                 !- Thickness {m}
  0.16,                                   !- Conductivity {W/m-K}
  784.9,                                  !- Density {kg/m3}
  830.000000000001,                       !- Specific Heat {J/kg-K}
  0.9,                                    !- Thermal Absorptance
  0.92,                                   !- Solar Absorptance
  0.92;                                   !- Visible Absorptance

OS:Material,
  {fc0b5a7d-accb-4f94-bc69-12c0c182be6a}, !- Handle
  AtticFloor Insulation,                  !- Name
  MediumRough,                            !- Roughness
  0.2379,                                 !- Thickness {m}
  0.049,                                  !- Conductivity {W/m-K}
  265,                                    !- Density {kg/m3}
  836.800000000001,                       !- Specific Heat {J/kg-K}
  0.9,                                    !- Thermal Absorptance
  0.7,                                    !- Solar Absorptance
  0.7;                                    !- Visible Absorptance

OS:Construction,
  {9c0190a4-dcee-49f9-9825-4532f9af8c74}, !- Handle
  ASHRAE 189.1-2009 ExtRoof IEAD ClimateZone 1, !- Name
  ,                                       !- Surface Rendering Name
  {e08881f4-1820-4da4-a4db-90a3dd1ed206}, !- Layer 1
  {cb7a25fd-7436-4952-a714-2cdd823ea2ed}, !- Layer 2
  {4e135023-ce64-4f46-8308-f15375ad8bd0}; !- Layer 3

OS:StandardsInformation:Construction,
  {97ecf016-ded4-4b9d-aae8-37b901c41221}, !- Handle
  {9c0190a4-dcee-49f9-9825-4532f9af8c74}, !- Construction Name
  ExteriorRoof,                           !- Intended Surface Type
  IEAD;                                   !- Standards Construction Type

OS:Material,
  {e08881f4-1820-4da4-a4db-90a3dd1ed206}, !- Handle
  Roof Membrane,                          !- Name
  VeryRough,                              !- Roughness
  0.0095,                                 !- Thickness {m}
  0.16,                                   !- Conductivity {W/m-K}
  1121.29,                                !- Density {kg/m3}
  1460,                                   !- Specific Heat {J/kg-K}
  0.9,                                    !- Thermal Absorptance
  0.7,                                    !- Solar Absorptance
  0.7;                                    !- Visible Absorptance

OS:Material,
  {cb7a25fd-7436-4952-a714-2cdd823ea2ed}, !- Handle
  Roof Insulation [18],                   !- Name
  MediumRough,                            !- Roughness
  0.1693,                                 !- Thickness {m}
  0.049,                                  !- Conductivity {W/m-K}
  265,                                    !- Density {kg/m3}
  836.800000000001,                       !- Specific Heat {J/kg-K}
  0.9,                                    !- Thermal Absorptance
  0.7,                                    !- Solar Absorptance
  0.7;                                    !- Visible Absorptance

OS:Material,
  {4e135023-ce64-4f46-8308-f15375ad8bd0}, !- Handle
  Metal Decking,                          !- Name
  MediumSmooth,                           !- Roughness
  0.0015,                                 !- Thickness {m}
  45.006,                                 !- Conductivity {W/m-K}
  7680,                                   !- Density {kg/m3}
  418.4,                                  !- Specific Heat {J/kg-K}
  0.9,                                    !- Thermal Absorptance
  0.7,                                    !- Solar Absorptance
  0.3;                                    !- Visible Absorptance

OS:Construction,
  {113fa624-e9d9-4792-a8e3-0ce2dfa4816a}, !- Handle
  ASHRAE 189.1-2009 ExtRoof IEAD ClimateZone 2-5, !- Name
  ,                                       !- Surface Rendering Name
  {e08881f4-1820-4da4-a4db-90a3dd1ed206}, !- Layer 1
  {08cf6b90-b65d-4012-8fd9-692f06f0d29d}, !- Layer 2
  {4e135023-ce64-4f46-8308-f15375ad8bd0}; !- Layer 3

OS:StandardsInformation:Construction,
  {9bc11845-a1ed-4845-bcce-76f195d90c29}, !- Handle
  {113fa624-e9d9-4792-a8e3-0ce2dfa4816a}, !- Construction Name
  ExteriorRoof,                           !- Intended Surface Type
  IEAD;                                   !- Standards Construction Type

OS:Material,
  {08cf6b90-b65d-4012-8fd9-692f06f0d29d}, !- Handle
  Roof Insulation [21],                   !- Name
  MediumRough,                            !- Roughness
  0.2105,                                 !- Thickness {m}
  0.049,                                  !- Conductivity {W/m-K}
  265,                                    !- Density {kg/m3}
  836.800000000001,                       !- Specific Heat {J/kg-K}
  0.9,                                    !- Thermal Absorptance
  0.7,                                    !- Solar Absorptance
  0.7;                                    !- Visible Absorptance

OS:Construction,
  {89bd1762-d7cc-4c08-90af-b483d0fe2b9d}, !- Handle
  ASHRAE 189.1-2009 ExtRoof IEAD ClimateZone 6, !- Name
  ,                                       !- Surface Rendering Name
  {e08881f4-1820-4da4-a4db-90a3dd1ed206}, !- Layer 1
  {c8b18a4e-d1a2-484c-96c5-ecb79baa6cba}, !- Layer 2
  {4e135023-ce64-4f46-8308-f15375ad8bd0}; !- Layer 3

OS:StandardsInformation:Construction,
  {9425c857-6445-48df-ba64-9bf8558bcc30}, !- Handle
  {89bd1762-d7cc-4c08-90af-b483d0fe2b9d}, !- Construction Name
  ExteriorRoof,                           !- Intended Surface Type
  IEAD;                                   !- Standards Construction Type

OS:Material,
  {c8b18a4e-d1a2-484c-96c5-ecb79baa6cba}, !- Handle
  Roof Insulation [24],                   !- Name
  MediumRough,                            !- Roughness
  0.260100000000001,                      !- Thickness {m}
  0.049,                                  !- Conductivity {W/m-K}
  265,                                    !- Density {kg/m3}
  836.800000000001,                       !- Specific Heat {J/kg-K}
  0.9,                                    !- Thermal Absorptance
  0.7,                                    !- Solar Absorptance
  0.7;                                    !- Visible Absorptance

OS:Construction,
  {aa07ec8c-b54a-4e4a-92ae-081a6832b2bf}, !- Handle
  ASHRAE 189.1-2009 ExtRoof IEAD ClimateZone 7-8, !- Name
  ,                                       !- Surface Rendering Name
  {e08881f4-1820-4da4-a4db-90a3dd1ed206}, !- Layer 1
  {17745649-2c45-4c15-815c-0ada5409307f}, !- Layer 2
  {4e135023-ce64-4f46-8308-f15375ad8bd0}; !- Layer 3

OS:StandardsInformation:Construction,
  {43964ecf-5146-4101-abe5-e20560ef29c9}, !- Handle
  {aa07ec8c-b54a-4e4a-92ae-081a6832b2bf}, !- Construction Name
  ExteriorRoof,                           !- Intended Surface Type
  IEAD;                                   !- Standards Construction Type

OS:Material,
  {17745649-2c45-4c15-815c-0ada5409307f}, !- Handle
  Roof Insulation [26],                   !- Name
  MediumRough,                            !- Roughness
  0.2941,                                 !- Thickness {m}
  0.049,                                  !- Conductivity {W/m-K}
  265,                                    !- Density {kg/m3}
  836.800000000001,                       !- Specific Heat {J/kg-K}
  0.9,                                    !- Thermal Absorptance
  0.7,                                    !- Solar Absorptance
  0.7;                                    !- Visible Absorptance

OS:Construction,
  {2a0d6004-361b-4a3f-b558-503bdd75adb1}, !- Handle
  ASHRAE 189.1-2009 ExtRoof Metal ClimateZone 1, !- Name
  ,                                       !- Surface Rendering Name
  {b645fe13-3c21-49bd-8b60-c257cbcda04d}, !- Layer 1
  {88fd32e0-8683-4b4d-98bf-ef0d617b766d}; !- Layer 2

OS:StandardsInformation:Construction,
  {667b9c68-d5b8-4d40-ad8b-af1c5837af38}, !- Handle
  {2a0d6004-361b-4a3f-b558-503bdd75adb1}, !- Construction Name
  ExteriorRoof,                           !- Intended Surface Type
  Metal;                                  !- Standards Construction Type

OS:Material,
  {b645fe13-3c21-49bd-8b60-c257cbcda04d}, !- Handle
  Metal Roofing,                          !- Name
  MediumSmooth,                           !- Roughness
  0.0015,                                 !- Thickness {m}
  45.006,                                 !- Conductivity {W/m-K}
  7680,                                   !- Density {kg/m3}
  418.4,                                  !- Specific Heat {J/kg-K}
  0.9,                                    !- Thermal Absorptance
  0.3,                                    !- Solar Absorptance
  0.3;                                    !- Visible Absorptance

OS:Material,
  {88fd32e0-8683-4b4d-98bf-ef0d617b766d}, !- Handle
  Roof Insulation [19],                   !- Name
  MediumRough,                            !- Roughness
  0.1868,                                 !- Thickness {m}
  0.049,                                  !- Conductivity {W/m-K}
  265,                                    !- Density {kg/m3}
  836.800000000001,                       !- Specific Heat {J/kg-K}
  0.9,                                    !- Thermal Absorptance
  0.7,                                    !- Solar Absorptance
  0.7;                                    !- Visible Absorptance

OS:Construction,
  {6340a3eb-eeae-4ad7-84de-915d6c434f8b}, !- Handle
  ASHRAE 189.1-2009 ExtRoof Metal ClimateZone 2-5, !- Name
  ,                                       !- Surface Rendering Name
  {b645fe13-3c21-49bd-8b60-c257cbcda04d}, !- Layer 1
  {ecf4b058-2013-48ac-a2ab-2c888f0b39a7}; !- Layer 2

OS:StandardsInformation:Construction,
  {c0bd2b47-b06e-4fd4-9b37-2e4961f8a11e}, !- Handle
  {6340a3eb-eeae-4ad7-84de-915d6c434f8b}, !- Construction Name
  ExteriorRoof,                           !- Intended Surface Type
  Metal;                                  !- Standards Construction Type

OS:Material,
  {ecf4b058-2013-48ac-a2ab-2c888f0b39a7}, !- Handle
  Roof Insulation [22],                   !- Name
  MediumRough,                            !- Roughness
  0.2358,                                 !- Thickness {m}
  0.049,                                  !- Conductivity {W/m-K}
  265,                                    !- Density {kg/m3}
  836.800000000001,                       !- Specific Heat {J/kg-K}
  0.9,                                    !- Thermal Absorptance
  0.7,                                    !- Solar Absorptance
  0.7;                                    !- Visible Absorptance

OS:Construction,
  {7dd66521-4f0a-4825-8bbf-df5e4396259e}, !- Handle
  ASHRAE 189.1-2009 ExtRoof Metal ClimateZone 6, !- Name
  ,                                       !- Surface Rendering Name
  {b645fe13-3c21-49bd-8b60-c257cbcda04d}, !- Layer 1
  {d447b165-7f6d-4604-92f5-13c972ac1cc9}; !- Layer 2

OS:StandardsInformation:Construction,
  {727911ad-64bc-41f6-a58a-6f043bef5a84}, !- Handle
  {7dd66521-4f0a-4825-8bbf-df5e4396259e}, !- Construction Name
  ExteriorRoof,                           !- Intended Surface Type
  Metal;                                  !- Standards Construction Type

OS:Material,
  {d447b165-7f6d-4604-92f5-13c972ac1cc9}, !- Handle
  Roof Insulation [25],                   !- Name
  MediumRough,                            !- Roughness
  0.263,                                  !- Thickness {m}
  0.049,                                  !- Conductivity {W/m-K}
  265,                                    !- Density {kg/m3}
  836.800000000001,                       !- Specific Heat {J/kg-K}
  0.9,                                    !- Thermal Absorptance
  0.7,                                    !- Solar Absorptance
  0.7;                                    !- Visible Absorptance

OS:Construction,
  {7b3aa76d-ed55-4c27-80fc-edb575bc37ea}, !- Handle
  ASHRAE 189.1-2009 ExtRoof Metal ClimateZone 7-8, !- Name
  ,                                       !- Surface Rendering Name
  {b645fe13-3c21-49bd-8b60-c257cbcda04d}, !- Layer 1
  {9509c80d-8e9a-44ae-898e-2f950ce6c3d7}; !- Layer 2

OS:StandardsInformation:Construction,
  {da77e22a-56d7-4fe3-9569-482cde871813}, !- Handle
  {7b3aa76d-ed55-4c27-80fc-edb575bc37ea}, !- Construction Name
  ExteriorRoof,                           !- Intended Surface Type
  Metal;                                  !- Standards Construction Type

OS:Material,
  {9509c80d-8e9a-44ae-898e-2f950ce6c3d7}, !- Handle
  Roof Insulation [27],                   !- Name
  MediumRough,                            !- Roughness
  0.297000000000001,                      !- Thickness {m}
  0.049,                                  !- Conductivity {W/m-K}
  265,                                    !- Density {kg/m3}
  836.800000000001,                       !- Specific Heat {J/kg-K}
  0.9,                                    !- Thermal Absorptance
  0.7,                                    !- Solar Absorptance
  0.7;                                    !- Visible Absorptance

OS:Construction,
  {2f5c4787-61f8-4f37-bd8d-ddaccbf5b4f4}, !- Handle
  ASHRAE 189.1-2009 ExtWall Mass ClimateZone 1, !- Name
  ,                                       !- Surface Rendering Name
  {e2f95fbf-e6fe-423d-8e9e-8718d72d9602}, !- Layer 1
  {ab2e8bb1-0e23-4db1-9f9e-5bbb11be4500}, !- Layer 2
  {b7e4649a-3785-44ba-86f4-c7e3eb854692}, !- Layer 3
  {47eec1a3-d907-4853-a6c7-9f3e966c8ce6}; !- Layer 4

OS:StandardsInformation:Construction,
  {eca4ce44-461e-4737-84ce-c883b1aa9a38}, !- Handle
  {2f5c4787-61f8-4f37-bd8d-ddaccbf5b4f4}, !- Construction Name
  ExteriorWall,                           !- Intended Surface Type
  Mass;                                   !- Standards Construction Type

OS:Material,
  {e2f95fbf-e6fe-423d-8e9e-8718d72d9602}, !- Handle
  1IN Stucco,                             !- Name
  Smooth,                                 !- Roughness
  0.0253,                                 !- Thickness {m}
  0.691799999999999,                      !- Conductivity {W/m-K}
  1858,                                   !- Density {kg/m3}
  836.999999999999,                       !- Specific Heat {J/kg-K}
  0.9,                                    !- Thermal Absorptance
  0.92,                                   !- Solar Absorptance
  0.92;                                   !- Visible Absorptance

OS:Material,
  {ab2e8bb1-0e23-4db1-9f9e-5bbb11be4500}, !- Handle
  8IN Concrete HW,                        !- Name
  MediumRough,                            !- Roughness
  0.2033,                                 !- Thickness {m}
  1.72959999999999,                       !- Conductivity {W/m-K}
  2242.99999999999,                       !- Density {kg/m3}
  836.999999999999,                       !- Specific Heat {J/kg-K}
  0.9,                                    !- Thermal Absorptance
  0.65,                                   !- Solar Absorptance
  0.65;                                   !- Visible Absorptance

OS:Material,
  {b7e4649a-3785-44ba-86f4-c7e3eb854692}, !- Handle
  Wall Insulation [31],                   !- Name
  MediumRough,                            !- Roughness
  0.0337000000000001,                     !- Thickness {m}
  0.0432,                                 !- Conductivity {W/m-K}
  91,                                     !- Density {kg/m3}
  836.999999999999,                       !- Specific Heat {J/kg-K}
  0.9,                                    !- Thermal Absorptance
  0.5,                                    !- Solar Absorptance
  0.5;                                    !- Visible Absorptance

OS:Construction,
  {e4719ffb-bd21-435c-9049-75b1ff3a66f9}, !- Handle
  ASHRAE 189.1-2009 ExtWall Mass ClimateZone 2, !- Name
  ,                                       !- Surface Rendering Name
  {e2f95fbf-e6fe-423d-8e9e-8718d72d9602}, !- Layer 1
  {ab2e8bb1-0e23-4db1-9f9e-5bbb11be4500}, !- Layer 2
  {0ee8327a-2df2-4319-9bb6-1a1799ce769d}, !- Layer 3
  {47eec1a3-d907-4853-a6c7-9f3e966c8ce6}; !- Layer 4

OS:StandardsInformation:Construction,
  {6af8c1fe-42aa-4f66-bfc9-3981706b0286}, !- Handle
  {e4719ffb-bd21-435c-9049-75b1ff3a66f9}, !- Construction Name
  ExteriorWall,                           !- Intended Surface Type
  Mass;                                   !- Standards Construction Type

OS:Material,
  {0ee8327a-2df2-4319-9bb6-1a1799ce769d}, !- Handle
  Wall Insulation [35],                   !- Name
  MediumRough,                            !- Roughness
  0.0452,                                 !- Thickness {m}
  0.0432,                                 !- Conductivity {W/m-K}
  91,                                     !- Density {kg/m3}
  836.999999999999,                       !- Specific Heat {J/kg-K}
  0.9,                                    !- Thermal Absorptance
  0.5,                                    !- Solar Absorptance
  0.5;                                    !- Visible Absorptance

OS:Construction,
  {a9b7b60a-5c58-4b56-a9de-a43b19dd644c}, !- Handle
  ASHRAE 189.1-2009 ExtWall Mass ClimateZone 3, !- Name
  ,                                       !- Surface Rendering Name
  {e2f95fbf-e6fe-423d-8e9e-8718d72d9602}, !- Layer 1
  {ab2e8bb1-0e23-4db1-9f9e-5bbb11be4500}, !- Layer 2
  {3b4a01a0-8f23-44c8-90f1-42c3b5ae0b19}, !- Layer 3
  {47eec1a3-d907-4853-a6c7-9f3e966c8ce6}; !- Layer 4

OS:StandardsInformation:Construction,
  {f4e8e6aa-f3a7-47d1-b7ca-282f7312d79e}, !- Handle
  {a9b7b60a-5c58-4b56-a9de-a43b19dd644c}, !- Construction Name
  ExteriorWall,                           !- Intended Surface Type
  Mass;                                   !- Standards Construction Type

OS:Material,
  {3b4a01a0-8f23-44c8-90f1-42c3b5ae0b19}, !- Handle
  Wall Insulation [36],                   !- Name
  MediumRough,                            !- Roughness
  0.0565999999999999,                     !- Thickness {m}
  0.0432,                                 !- Conductivity {W/m-K}
  91,                                     !- Density {kg/m3}
  836.999999999999,                       !- Specific Heat {J/kg-K}
  0.9,                                    !- Thermal Absorptance
  0.5,                                    !- Solar Absorptance
  0.5;                                    !- Visible Absorptance

OS:Construction,
  {7d7a2405-06b4-47e4-9fb4-ff8b0929ec54}, !- Handle
  ASHRAE 189.1-2009 ExtWall Mass ClimateZone 4, !- Name
  ,                                       !- Surface Rendering Name
  {e2f95fbf-e6fe-423d-8e9e-8718d72d9602}, !- Layer 1
  {ab2e8bb1-0e23-4db1-9f9e-5bbb11be4500}, !- Layer 2
  {0053bc6e-4b05-4003-b50d-da7deb75a570}, !- Layer 3
  {47eec1a3-d907-4853-a6c7-9f3e966c8ce6}; !- Layer 4

OS:StandardsInformation:Construction,
  {fee362b2-2b6f-4d56-94f6-3228d6f2f57e}, !- Handle
  {7d7a2405-06b4-47e4-9fb4-ff8b0929ec54}, !- Construction Name
  ExteriorWall,                           !- Intended Surface Type
  Mass;                                   !- Standards Construction Type

OS:Material,
  {0053bc6e-4b05-4003-b50d-da7deb75a570}, !- Handle
  Wall Insulation [37],                   !- Name
  MediumRough,                            !- Roughness
  0.0680999999999999,                     !- Thickness {m}
  0.0432,                                 !- Conductivity {W/m-K}
  91,                                     !- Density {kg/m3}
  836.999999999999,                       !- Specific Heat {J/kg-K}
  0.9,                                    !- Thermal Absorptance
  0.5,                                    !- Solar Absorptance
  0.5;                                    !- Visible Absorptance

OS:Construction,
  {856bafa7-50d0-4783-92a2-20cad84f8a6b}, !- Handle
  ASHRAE 189.1-2009 ExtWall Mass ClimateZone 5, !- Name
  ,                                       !- Surface Rendering Name
  {e2f95fbf-e6fe-423d-8e9e-8718d72d9602}, !- Layer 1
  {ab2e8bb1-0e23-4db1-9f9e-5bbb11be4500}, !- Layer 2
  {d1053893-117b-4cc8-849e-191f632b0d12}, !- Layer 3
  {47eec1a3-d907-4853-a6c7-9f3e966c8ce6}; !- Layer 4

OS:StandardsInformation:Construction,
  {366002a4-c261-4d27-aec4-a42f1c274783}, !- Handle
  {856bafa7-50d0-4783-92a2-20cad84f8a6b}, !- Construction Name
  ExteriorWall,                           !- Intended Surface Type
  Mass;                                   !- Standards Construction Type

OS:Material,
  {d1053893-117b-4cc8-849e-191f632b0d12}, !- Handle
  Wall Insulation [40],                   !- Name
  MediumRough,                            !- Roughness
  0.0793999999999999,                     !- Thickness {m}
  0.0432,                                 !- Conductivity {W/m-K}
  91,                                     !- Density {kg/m3}
  836.999999999999,                       !- Specific Heat {J/kg-K}
  0.9,                                    !- Thermal Absorptance
  0.5,                                    !- Solar Absorptance
  0.5;                                    !- Visible Absorptance

OS:Construction,
  {93386716-9518-42c8-a184-9a91e582ea87}, !- Handle
  ASHRAE 189.1-2009 ExtWall Mass ClimateZone 6, !- Name
  ,                                       !- Surface Rendering Name
  {e2f95fbf-e6fe-423d-8e9e-8718d72d9602}, !- Layer 1
  {ab2e8bb1-0e23-4db1-9f9e-5bbb11be4500}, !- Layer 2
  {da95b596-aa6f-472e-ae4c-97cba67f3236}, !- Layer 3
  {47eec1a3-d907-4853-a6c7-9f3e966c8ce6}; !- Layer 4

OS:StandardsInformation:Construction,
  {3c31758e-41f8-4402-bc61-cfbdab3951d2}, !- Handle
  {93386716-9518-42c8-a184-9a91e582ea87}, !- Construction Name
  ExteriorWall,                           !- Intended Surface Type
  Mass;                                   !- Standards Construction Type

OS:Material,
  {da95b596-aa6f-472e-ae4c-97cba67f3236}, !- Handle
  Wall Insulation [42],                   !- Name
  MediumRough,                            !- Roughness
  0.0913999999999999,                     !- Thickness {m}
  0.0432,                                 !- Conductivity {W/m-K}
  91,                                     !- Density {kg/m3}
  836.999999999999,                       !- Specific Heat {J/kg-K}
  0.9,                                    !- Thermal Absorptance
  0.5,                                    !- Solar Absorptance
  0.5;                                    !- Visible Absorptance

OS:Construction,
  {2bf0aa65-40ef-4937-bd05-796276478453}, !- Handle
  ASHRAE 189.1-2009 ExtWall Mass ClimateZone 7-8, !- Name
  ,                                       !- Surface Rendering Name
  {e2f95fbf-e6fe-423d-8e9e-8718d72d9602}, !- Layer 1
  {ab2e8bb1-0e23-4db1-9f9e-5bbb11be4500}, !- Layer 2
  {9cdfcb8d-a8d5-4abb-a22f-067d300551c6}, !- Layer 3
  {47eec1a3-d907-4853-a6c7-9f3e966c8ce6}; !- Layer 4

OS:StandardsInformation:Construction,
  {9e60c32a-8529-4c96-9ecf-eafca7531a79}, !- Handle
  {2bf0aa65-40ef-4937-bd05-796276478453}, !- Construction Name
  ExteriorWall,                           !- Intended Surface Type
  Mass;                                   !- Standards Construction Type

OS:Material,
  {9cdfcb8d-a8d5-4abb-a22f-067d300551c6}, !- Handle
  Wall Insulation [44],                   !- Name
  MediumRough,                            !- Roughness
  0.1104,                                 !- Thickness {m}
  0.0432,                                 !- Conductivity {W/m-K}
  91,                                     !- Density {kg/m3}
  836.999999999999,                       !- Specific Heat {J/kg-K}
  0.9,                                    !- Thermal Absorptance
  0.5,                                    !- Solar Absorptance
  0.5;                                    !- Visible Absorptance

OS:Construction,
  {b9fbe18a-f557-4770-90ff-d5e4aebb772d}, !- Handle
  ASHRAE 189.1-2009 ExtWall Mass ClimateZone alt-res 1, !- Name
  ,                                       !- Surface Rendering Name
  {e2f95fbf-e6fe-423d-8e9e-8718d72d9602}, !- Layer 1
  {ab2e8bb1-0e23-4db1-9f9e-5bbb11be4500}, !- Layer 2
  {0ee8327a-2df2-4319-9bb6-1a1799ce769d}, !- Layer 3
  {47eec1a3-d907-4853-a6c7-9f3e966c8ce6}; !- Layer 4

OS:StandardsInformation:Construction,
  {8b6912b2-e97c-4a8a-bd4e-9a1a5a4a7acc}, !- Handle
  {b9fbe18a-f557-4770-90ff-d5e4aebb772d}, !- Construction Name
  ExteriorWall,                           !- Intended Surface Type
  Mass;                                   !- Standards Construction Type

OS:Construction,
  {7684f2c5-0d53-43a7-bbca-8c945d857b76}, !- Handle
  ASHRAE 189.1-2009 ExtWall Mass ClimateZone alt-res 2, !- Name
  ,                                       !- Surface Rendering Name
  {e2f95fbf-e6fe-423d-8e9e-8718d72d9602}, !- Layer 1
  {ab2e8bb1-0e23-4db1-9f9e-5bbb11be4500}, !- Layer 2
  {3b4a01a0-8f23-44c8-90f1-42c3b5ae0b19}, !- Layer 3
  {47eec1a3-d907-4853-a6c7-9f3e966c8ce6}; !- Layer 4

OS:StandardsInformation:Construction,
  {140cd3f8-6675-439d-8871-08f9f4f32ca7}, !- Handle
  {7684f2c5-0d53-43a7-bbca-8c945d857b76}, !- Construction Name
  ExteriorWall,                           !- Intended Surface Type
  Mass;                                   !- Standards Construction Type

OS:Construction,
  {b66f0ceb-88d5-4619-a636-f59568947360}, !- Handle
  ASHRAE 189.1-2009 ExtWall Mass ClimateZone alt-res 3, !- Name
  ,                                       !- Surface Rendering Name
  {e2f95fbf-e6fe-423d-8e9e-8718d72d9602}, !- Layer 1
  {ab2e8bb1-0e23-4db1-9f9e-5bbb11be4500}, !- Layer 2
  {0053bc6e-4b05-4003-b50d-da7deb75a570}, !- Layer 3
  {47eec1a3-d907-4853-a6c7-9f3e966c8ce6}; !- Layer 4

OS:StandardsInformation:Construction,
  {56ec9c15-5387-4c09-87e8-4986d2e750ee}, !- Handle
  {b66f0ceb-88d5-4619-a636-f59568947360}, !- Construction Name
  ExteriorWall,                           !- Intended Surface Type
  Mass;                                   !- Standards Construction Type

OS:Construction,
  {31fb7c60-fedc-4846-bad4-8caf15ee7864}, !- Handle
  ASHRAE 189.1-2009 ExtWall Mass ClimateZone alt-res 4, !- Name
  ,                                       !- Surface Rendering Name
  {e2f95fbf-e6fe-423d-8e9e-8718d72d9602}, !- Layer 1
  {ab2e8bb1-0e23-4db1-9f9e-5bbb11be4500}, !- Layer 2
  {d1053893-117b-4cc8-849e-191f632b0d12}, !- Layer 3
  {47eec1a3-d907-4853-a6c7-9f3e966c8ce6}; !- Layer 4

OS:StandardsInformation:Construction,
  {90be8e6f-73c1-4462-a0eb-ee067ae9aaec}, !- Handle
  {31fb7c60-fedc-4846-bad4-8caf15ee7864}, !- Construction Name
  ExteriorWall,                           !- Intended Surface Type
  Mass;                                   !- Standards Construction Type

OS:Construction,
  {a351f753-29f0-432c-8688-e27381ae2ee7}, !- Handle
  ASHRAE 189.1-2009 ExtWall Mass ClimateZone alt-res 5, !- Name
  ,                                       !- Surface Rendering Name
  {e2f95fbf-e6fe-423d-8e9e-8718d72d9602}, !- Layer 1
  {ab2e8bb1-0e23-4db1-9f9e-5bbb11be4500}, !- Layer 2
  {da95b596-aa6f-472e-ae4c-97cba67f3236}, !- Layer 3
  {47eec1a3-d907-4853-a6c7-9f3e966c8ce6}; !- Layer 4

OS:StandardsInformation:Construction,
  {960a9b19-4c3c-4655-88e2-8aceffb0317b}, !- Handle
  {a351f753-29f0-432c-8688-e27381ae2ee7}, !- Construction Name
  ExteriorWall,                           !- Intended Surface Type
  Mass;                                   !- Standards Construction Type

OS:Construction,
  {b7d5fc11-5274-45d0-be9b-22e1b43b8c01}, !- Handle
  ASHRAE 189.1-2009 ExtWall Mass ClimateZone alt-res 6, !- Name
  ,                                       !- Surface Rendering Name
  {e2f95fbf-e6fe-423d-8e9e-8718d72d9602}, !- Layer 1
  {ab2e8bb1-0e23-4db1-9f9e-5bbb11be4500}, !- Layer 2
  {9cdfcb8d-a8d5-4abb-a22f-067d300551c6}, !- Layer 3
  {47eec1a3-d907-4853-a6c7-9f3e966c8ce6}; !- Layer 4

OS:StandardsInformation:Construction,
  {351cd142-56eb-44d5-9713-8be02b6227ef}, !- Handle
  {b7d5fc11-5274-45d0-be9b-22e1b43b8c01}, !- Construction Name
  ExteriorWall,                           !- Intended Surface Type
  Mass;                                   !- Standards Construction Type

OS:Construction,
  {9ed4a258-5a85-4b7e-9031-f10858678324}, !- Handle
  ASHRAE 189.1-2009 ExtWall Mass ClimateZone alt-res 7, !- Name
  ,                                       !- Surface Rendering Name
  {e2f95fbf-e6fe-423d-8e9e-8718d72d9602}, !- Layer 1
  {ab2e8bb1-0e23-4db1-9f9e-5bbb11be4500}, !- Layer 2
  {9cdfcb8d-a8d5-4abb-a22f-067d300551c6}, !- Layer 3
  {47eec1a3-d907-4853-a6c7-9f3e966c8ce6}; !- Layer 4

OS:StandardsInformation:Construction,
  {ef56e509-a635-4d08-b6a8-2d60707d3554}, !- Handle
  {9ed4a258-5a85-4b7e-9031-f10858678324}, !- Construction Name
  ExteriorWall,                           !- Intended Surface Type
  Mass;                                   !- Standards Construction Type

OS:Construction,
  {26e00a2e-50a4-48e5-81f1-65b421309bbd}, !- Handle
  ASHRAE 189.1-2009 ExtWall Mass ClimateZone alt-res 8, !- Name