
OS:Version,
  {4b3daeae-cde3-4e39-8aee-b112e00ee500}, !- Handle
  1.4.0;                                  !- Version Identifier

OS:Construction,
  {51fd5f0e-8624-4ab5-beb5-513a01ee7745}, !- Handle
  ASHRAE 189.1-2009 AtticFloor ClimateZone 1-8, !- Name
  ,                                       !- Surface Rendering Name
  {84a19d71-0e4d-4329-ae5f-5ca09e871200}, !- Layer 1
  {a14c1416-c196-4630-aae5-e0ebae146f2b}, !- Layer 2
  {84a19d71-0e4d-4329-ae5f-5ca09e871200}; !- Layer 3

OS:StandardsInformation:Construction,
  {b4b3b4d5-7900-4f1b-adfa-0297031f7d66}, !- Handle
  {51fd5f0e-8624-4ab5-beb5-513a01ee7745}, !- Construction Name
  AtticFloor,                             !- Intended Surface Type
  WoodFramed;                             !- Standards Construction Type

OS:Material,
  {84a19d71-0e4d-4329-ae5f-5ca09e871200}, !- Handle
  1/2IN Gypsum,                           !- Name
  Smooth,                                 !- Roughness
  0.0127,                                 !- Thickness {m}
  0.16,                                   !- Conductivity {W/m-K}
  784.9,                                  !- Density {kg/m3}
  830.000000000001,                       !- Specific Heat {J/kg-K}
  0.9,                                    !- Thermal Absorptance
  0.4,                                    !- Solar Absorptance
  0.4;                                    !- Visible Absorptance

OS:Material,
  {a14c1416-c196-4630-aae5-e0ebae146f2b}, !- Handle
  AtticFloor Insulation,                  !- Name
  MediumRough,                            !- Roughness
  0.2379,                                 !- Thickness {m}
  0.049,                                  !- Conductivity {W/m-K}
  265,                                    !- Density {kg/m3}
  836.800000000001,                       !- Specific Heat {J/kg-K}
  0.9,                                    !- Thermal Absorptance
  0.7,                                    !- Solar Absorptance
  0.7;                                    !- Visible Absorptance

OS:Construction,
  {dff8d3b4-2d0c-40d7-a5c1-c0b0278d83d6}, !- Handle
  ASHRAE 189.1-2009 ExtRoof IEAD ClimateZone 1, !- Name
  ,                                       !- Surface Rendering Name
  {673b56e9-8fee-4424-84f1-314804a732e5}, !- Layer 1
  {d7963455-ed9a-482b-8784-224560b2a21a}, !- Layer 2
  {91e3e2f4-c82a-4b47-af1c-61e9c41df14c}; !- Layer 3

OS:StandardsInformation:Construction,
  {9397763d-adc9-4379-80eb-83643077d42e}, !- Handle
  {dff8d3b4-2d0c-40d7-a5c1-c0b0278d83d6}, !- Construction Name
  ExteriorRoof,                           !- Intended Surface Type
  IEAD;                                   !- Standards Construction Type

OS:Material,
  {673b56e9-8fee-4424-84f1-314804a732e5}, !- Handle
  Roof Membrane,                          !- Name
  VeryRough,                              !- Roughness
  0.0095,                                 !- Thickness {m}
  0.16,                                   !- Conductivity {W/m-K}
  1121.29,                                !- Density {kg/m3}
  1460,                                   !- Specific Heat {J/kg-K}
  0.9,                                    !- Thermal Absorptance
  0.7,                                    !- Solar Absorptance
  0.7;                                    !- Visible Absorptance

OS:Material,
  {d7963455-ed9a-482b-8784-224560b2a21a}, !- Handle
  Roof Insulation [18],                   !- Name
  MediumRough,                            !- Roughness
  0.1693,                                 !- Thickness {m}
  0.049,                                  !- Conductivity {W/m-K}
  265,                                    !- Density {kg/m3}
  836.800000000001,                       !- Specific Heat {J/kg-K}
  0.9,                                    !- Thermal Absorptance
  0.7,                                    !- Solar Absorptance
  0.7;                                    !- Visible Absorptance

OS:Material,
  {91e3e2f4-c82a-4b47-af1c-61e9c41df14c}, !- Handle
  Metal Decking,                          !- Name
  MediumSmooth,                           !- Roughness
  0.0015,                                 !- Thickness {m}
  45.006,                                 !- Conductivity {W/m-K}
  7680,                                   !- Density {kg/m3}
  418.4,                                  !- Specific Heat {J/kg-K}
  0.9,                                    !- Thermal Absorptance
  0.6,                                    !- Solar Absorptance
  0.6;                                    !- Visible Absorptance

OS:Construction,
  {c7017787-b998-4f59-bda0-cb44ac0b1b6c}, !- Handle
  ASHRAE 189.1-2009 ExtRoof IEAD ClimateZone 2-5, !- Name
  ,                                       !- Surface Rendering Name
  {673b56e9-8fee-4424-84f1-314804a732e5}, !- Layer 1
  {ee5791fa-85f5-4cab-919a-bcb1379834a5}, !- Layer 2
  {91e3e2f4-c82a-4b47-af1c-61e9c41df14c}; !- Layer 3

OS:StandardsInformation:Construction,
  {7226e876-839a-4ebd-9d58-d8f7f72ac43d}, !- Handle
  {c7017787-b998-4f59-bda0-cb44ac0b1b6c}, !- Construction Name
  ExteriorRoof,                           !- Intended Surface Type
  IEAD;                                   !- Standards Construction Type

OS:Material,
  {ee5791fa-85f5-4cab-919a-bcb1379834a5}, !- Handle
  Roof Insulation [21],                   !- Name
  MediumRough,                            !- Roughness
  0.2105,                                 !- Thickness {m}
  0.049,                                  !- Conductivity {W/m-K}
  265,                                    !- Density {kg/m3}
  836.800000000001,                       !- Specific Heat {J/kg-K}
  0.9,                                    !- Thermal Absorptance
  0.7,                                    !- Solar Absorptance
  0.7;                                    !- Visible Absorptance

OS:Construction,
  {65839d69-94fb-4b72-81d5-ca4fd1b4502b}, !- Handle
  ASHRAE 189.1-2009 ExtRoof IEAD ClimateZone 6, !- Name
  ,                                       !- Surface Rendering Name
  {673b56e9-8fee-4424-84f1-314804a732e5}, !- Layer 1
  {3265717f-2d07-4722-9ca2-aad6f18d1527}, !- Layer 2
  {91e3e2f4-c82a-4b47-af1c-61e9c41df14c}; !- Layer 3

OS:StandardsInformation:Construction,
  {b7b28ecf-533c-4aa0-a6a4-cc0aa32c0921}, !- Handle
  {65839d69-94fb-4b72-81d5-ca4fd1b4502b}, !- Construction Name
  ExteriorRoof,                           !- Intended Surface Type
  IEAD;                                   !- Standards Construction Type

OS:Material,
  {3265717f-2d07-4722-9ca2-aad6f18d1527}, !- Handle
  Roof Insulation [24],                   !- Name
  MediumRough,                            !- Roughness
  0.260100000000001,                      !- Thickness {m}
  0.049,                                  !- Conductivity {W/m-K}
  265,                                    !- Density {kg/m3}
  836.800000000001,                       !- Specific Heat {J/kg-K}
  0.9,                                    !- Thermal Absorptance
  0.7,                                    !- Solar Absorptance
  0.7;                                    !- Visible Absorptance

OS:Construction,
  {03b4b0ec-6a07-40d8-abf0-3d5f274e342e}, !- Handle
  ASHRAE 189.1-2009 ExtRoof IEAD ClimateZone 7-8, !- Name
  ,                                       !- Surface Rendering Name
  {673b56e9-8fee-4424-84f1-314804a732e5}, !- Layer 1
  {c0c1b266-9234-433c-a77d-924c40f263b7}, !- Layer 2
  {91e3e2f4-c82a-4b47-af1c-61e9c41df14c}; !- Layer 3

OS:StandardsInformation:Construction,
  {ef4ee44b-0da8-491e-baed-1719fe0c4375}, !- Handle
  {03b4b0ec-6a07-40d8-abf0-3d5f274e342e}, !- Construction Name
  ExteriorRoof,                           !- Intended Surface Type
  IEAD;                                   !- Standards Construction Type

OS:Material,
  {c0c1b266-9234-433c-a77d-924c40f263b7}, !- Handle
  Roof Insulation [26],                   !- Name
  MediumRough,                            !- Roughness
  0.2941,                                 !- Thickness {m}
  0.049,                                  !- Conductivity {W/m-K}
  265,                                    !- Density {kg/m3}
  836.800000000001,                       !- Specific Heat {J/kg-K}
  0.9,                                    !- Thermal Absorptance
  0.7,                                    !- Solar Absorptance
  0.7;                                    !- Visible Absorptance

OS:Construction,
  {7fddbed3-7483-4b45-b314-fd5fb9d8751f}, !- Handle
  ASHRAE 189.1-2009 ExtRoof Metal ClimateZone 1, !- Name
  ,                                       !- Surface Rendering Name
  {1989fef9-1859-414a-ac6a-ea5ff3ee5267}, !- Layer 1
  {da8b976b-e90e-4c0b-a21b-a2064ac18f19}, !- Layer 2
  {91e3e2f4-c82a-4b47-af1c-61e9c41df14c}; !- Layer 3

OS:StandardsInformation:Construction,
  {bbca8208-d9b1-44f8-bb7e-66aa694fafab}, !- Handle
  {7fddbed3-7483-4b45-b314-fd5fb9d8751f}, !- Construction Name
  ExteriorRoof,                           !- Intended Surface Type
  Metal;                                  !- Standards Construction Type

OS:Material,
  {1989fef9-1859-414a-ac6a-ea5ff3ee5267}, !- Handle
  Metal Roofing,                          !- Name
  MediumSmooth,                           !- Roughness
  0.0015,                                 !- Thickness {m}
  45.006,                                 !- Conductivity {W/m-K}
  7680,                                   !- Density {kg/m3}
  418.4,                                  !- Specific Heat {J/kg-K}
  0.9,                                    !- Thermal Absorptance
  0.6,                                    !- Solar Absorptance
  0.6;                                    !- Visible Absorptance

OS:Material,
  {da8b976b-e90e-4c0b-a21b-a2064ac18f19}, !- Handle
  Roof Insulation [19],                   !- Name
  MediumRough,                            !- Roughness
  0.1868,                                 !- Thickness {m}
  0.049,                                  !- Conductivity {W/m-K}
  265,                                    !- Density {kg/m3}
  836.800000000001,                       !- Specific Heat {J/kg-K}
  0.9,                                    !- Thermal Absorptance
  0.7,                                    !- Solar Absorptance
  0.7;                                    !- Visible Absorptance

OS:Construction,
  {192877e6-5a2e-47b3-9036-cd3d3d20e6d3}, !- Handle
  ASHRAE 189.1-2009 ExtRoof Metal ClimateZone 2-5, !- Name
  ,                                       !- Surface Rendering Name
  {1989fef9-1859-414a-ac6a-ea5ff3ee5267}, !- Layer 1
  {bafc5625-c0b5-475d-ac2e-2ce72a95da47}, !- Layer 2
  {91e3e2f4-c82a-4b47-af1c-61e9c41df14c}; !- Layer 3

OS:StandardsInformation:Construction,
  {ade9a893-4fd8-4239-a32b-b5ba7a1e35c9}, !- Handle
  {192877e6-5a2e-47b3-9036-cd3d3d20e6d3}, !- Construction Name
  ExteriorRoof,                           !- Intended Surface Type
  Metal;                                  !- Standards Construction Type

OS:Material,
  {bafc5625-c0b5-475d-ac2e-2ce72a95da47}, !- Handle
  Roof Insulation [22],                   !- Name
  MediumRough,                            !- Roughness
  0.2358,                                 !- Thickness {m}
  0.049,                                  !- Conductivity {W/m-K}
  265,                                    !- Density {kg/m3}
  836.800000000001,                       !- Specific Heat {J/kg-K}
  0.9,                                    !- Thermal Absorptance
  0.7,                                    !- Solar Absorptance
  0.7;                                    !- Visible Absorptance

OS:Construction,
  {267a44a4-9100-47a3-a43c-ab11d71653c0}, !- Handle
  ASHRAE 189.1-2009 ExtRoof Metal ClimateZone 6, !- Name
  ,                                       !- Surface Rendering Name
  {1989fef9-1859-414a-ac6a-ea5ff3ee5267}, !- Layer 1
  {466a745f-36b9-4bd7-9029-c1be8466ec6f}, !- Layer 2
  {91e3e2f4-c82a-4b47-af1c-61e9c41df14c}; !- Layer 3

OS:StandardsInformation:Construction,
  {7586ace4-d6b8-465c-8b79-1b999c85c1d7}, !- Handle
  {267a44a4-9100-47a3-a43c-ab11d71653c0}, !- Construction Name
  ExteriorRoof,                           !- Intended Surface Type
  Metal;                                  !- Standards Construction Type

OS:Material,
  {466a745f-36b9-4bd7-9029-c1be8466ec6f}, !- Handle
  Roof Insulation [25],                   !- Name
  MediumRough,                            !- Roughness
  0.263,                                  !- Thickness {m}
  0.049,                                  !- Conductivity {W/m-K}
  265,                                    !- Density {kg/m3}
  836.800000000001,                       !- Specific Heat {J/kg-K}
  0.9,                                    !- Thermal Absorptance
  0.7,                                    !- Solar Absorptance
  0.7;                                    !- Visible Absorptance

OS:Construction,
  {584fdb3c-3938-40ee-9c3d-a8c8e871a91f}, !- Handle
  ASHRAE 189.1-2009 ExtRoof Metal ClimateZone 7-8, !- Name
  ,                                       !- Surface Rendering Name
  {1989fef9-1859-414a-ac6a-ea5ff3ee5267}, !- Layer 1
  {8453c374-5507-417d-a172-1ff48c6d54bc}, !- Layer 2
  {91e3e2f4-c82a-4b47-af1c-61e9c41df14c}; !- Layer 3

OS:StandardsInformation:Construction,
  {bb3dfe4f-0932-45d5-a975-c89eb5d9f956}, !- Handle
  {584fdb3c-3938-40ee-9c3d-a8c8e871a91f}, !- Construction Name
  ExteriorRoof,                           !- Intended Surface Type
  Metal;                                  !- Standards Construction Type

OS:Material,
  {8453c374-5507-417d-a172-1ff48c6d54bc}, !- Handle
  Roof Insulation [27],                   !- Name
  MediumRough,                            !- Roughness
  0.297000000000001,                      !- Thickness {m}
  0.049,                                  !- Conductivity {W/m-K}
  265,                                    !- Density {kg/m3}
  836.800000000001,                       !- Specific Heat {J/kg-K}
  0.9,                                    !- Thermal Absorptance
  0.7,                                    !- Solar Absorptance
  0.7;                                    !- Visible Absorptance

OS:Construction,
  {049ef014-eb9f-491e-84d1-fec6e3673193}, !- Handle
  ASHRAE 189.1-2009 ExtWall Mass ClimateZone 1, !- Name
  ,                                       !- Surface Rendering Name
  {5ef4d65c-9b4e-42c9-86ee-e13022a70268}, !- Layer 1
  {318a446e-a3e3-4a7a-90d8-9b0b64f96f95}, !- Layer 2
  {371e90a5-df4c-4580-a9d1-6d71f064e27c}, !- Layer 3
  {84a19d71-0e4d-4329-ae5f-5ca09e871200}; !- Layer 4

OS:StandardsInformation:Construction,
  {fae8a914-f581-4177-ab21-17dbf468398d}, !- Handle
  {049ef014-eb9f-491e-84d1-fec6e3673193}, !- Construction Name
  ExteriorWall,                           !- Intended Surface Type
  Mass;                                   !- Standards Construction Type

OS:Material,
  {5ef4d65c-9b4e-42c9-86ee-e13022a70268}, !- Handle
  1IN Stucco,                             !- Name
  Smooth,                                 !- Roughness
  0.0253,                                 !- Thickness {m}
  0.691799999999999,                      !- Conductivity {W/m-K}
  1858,                                   !- Density {kg/m3}
  836.999999999999,                       !- Specific Heat {J/kg-K}
  0.9,                                    !- Thermal Absorptance
  0.92,                                   !- Solar Absorptance
  0.92;                                   !- Visible Absorptance

OS:Material,
  {318a446e-a3e3-4a7a-90d8-9b0b64f96f95}, !- Handle
  8IN Concrete HW,                        !- Name
  MediumRough,                            !- Roughness
  0.2033,                                 !- Thickness {m}
  1.72959999999999,                       !- Conductivity {W/m-K}
  2242.99999999999,                       !- Density {kg/m3}
  836.999999999999,                       !- Specific Heat {J/kg-K}
  0.9,                                    !- Thermal Absorptance
  0.65,                                   !- Solar Absorptance
  0.65;                                   !- Visible Absorptance

OS:Material,
  {371e90a5-df4c-4580-a9d1-6d71f064e27c}, !- Handle
  Wall Insulation [31],                   !- Name
  MediumRough,                            !- Roughness
  0.0337000000000001,                     !- Thickness {m}
  0.0432,                                 !- Conductivity {W/m-K}
  91,                                     !- Density {kg/m3}
  836.999999999999,                       !- Specific Heat {J/kg-K}
  0.9,                                    !- Thermal Absorptance
  0.5,                                    !- Solar Absorptance
  0.5;                                    !- Visible Absorptance

OS:Construction,
  {dfff5f64-e52a-4df3-b7d2-eb0dc3d1383f}, !- Handle
  ASHRAE 189.1-2009 ExtWall Mass ClimateZone 2, !- Name
  ,                                       !- Surface Rendering Name
  {5ef4d65c-9b4e-42c9-86ee-e13022a70268}, !- Layer 1
  {318a446e-a3e3-4a7a-90d8-9b0b64f96f95}, !- Layer 2
  {2419de32-01c7-4d3d-9634-0bbcb5c2675c}, !- Layer 3
  {84a19d71-0e4d-4329-ae5f-5ca09e871200}; !- Layer 4

OS:StandardsInformation:Construction,
  {e9afbba6-4b7c-4df9-a3a2-65392acb8b3d}, !- Handle
  {dfff5f64-e52a-4df3-b7d2-eb0dc3d1383f}, !- Construction Name
  ExteriorWall,                           !- Intended Surface Type
  Mass;                                   !- Standards Construction Type

OS:Material,
  {2419de32-01c7-4d3d-9634-0bbcb5c2675c}, !- Handle
  Wall Insulation [35],                   !- Name
  MediumRough,                            !- Roughness
  0.0452,                                 !- Thickness {m}
  0.0432,                                 !- Conductivity {W/m-K}
  91,                                     !- Density {kg/m3}
  836.999999999999,                       !- Specific Heat {J/kg-K}
  0.9,                                    !- Thermal Absorptance
  0.5,                                    !- Solar Absorptance
  0.5;                                    !- Visible Absorptance

OS:Construction,
  {93c06855-bfd7-40bc-b11a-a18f9d93fa70}, !- Handle
  ASHRAE 189.1-2009 ExtWall Mass ClimateZone 3, !- Name
  ,                                       !- Surface Rendering Name
  {5ef4d65c-9b4e-42c9-86ee-e13022a70268}, !- Layer 1
  {318a446e-a3e3-4a7a-90d8-9b0b64f96f95}, !- Layer 2
  {baae8ba2-13dc-46bf-9787-f8bcdad2ec63}, !- Layer 3
  {84a19d71-0e4d-4329-ae5f-5ca09e871200}; !- Layer 4

OS:StandardsInformation:Construction,
  {0b2f5204-fe5d-4a91-98f8-7adb340c089c}, !- Handle
  {93c06855-bfd7-40bc-b11a-a18f9d93fa70}, !- Construction Name
  ExteriorWall,                           !- Intended Surface Type
  Mass;                                   !- Standards Construction Type

OS:Material,
  {baae8ba2-13dc-46bf-9787-f8bcdad2ec63}, !- Handle
  Wall Insulation [36],                   !- Name
  MediumRough,                            !- Roughness
  0.0565999999999999,                     !- Thickness {m}
  0.0432,                                 !- Conductivity {W/m-K}
  91,                                     !- Density {kg/m3}
  836.999999999999,                       !- Specific Heat {J/kg-K}
  0.9,                                    !- Thermal Absorptance
  0.5,                                    !- Solar Absorptance
  0.5;                                    !- Visible Absorptance

OS:Construction,
  {fb37c39b-152f-48bc-9059-346e3ee2ed22}, !- Handle
  ASHRAE 189.1-2009 ExtWall Mass ClimateZone 4, !- Name
  ,                                       !- Surface Rendering Name
  {5ef4d65c-9b4e-42c9-86ee-e13022a70268}, !- Layer 1
  {318a446e-a3e3-4a7a-90d8-9b0b64f96f95}, !- Layer 2
  {31b3d84f-1972-4504-b0c5-ea2ec2119e2d}, !- Layer 3
  {84a19d71-0e4d-4329-ae5f-5ca09e871200}; !- Layer 4

OS:StandardsInformation:Construction,
  {9bc6da4d-28d4-403d-bb5b-071a785a0da4}, !- Handle
  {fb37c39b-152f-48bc-9059-346e3ee2ed22}, !- Construction Name
  ExteriorWall,                           !- Intended Surface Type
  Mass;                                   !- Standards Construction Type

OS:Material,
  {31b3d84f-1972-4504-b0c5-ea2ec2119e2d}, !- Handle
  Wall Insulation [37],                   !- Name
  MediumRough,                            !- Roughness
  0.0680999999999999,                     !- Thickness {m}
  0.0432,                                 !- Conductivity {W/m-K}
  91,                                     !- Density {kg/m3}
  836.999999999999,                       !- Specific Heat {J/kg-K}
  0.9,                                    !- Thermal Absorptance
  0.5,                                    !- Solar Absorptance
  0.5;                                    !- Visible Absorptance

OS:Construction,
  {00ebc7b4-9789-4b86-9d71-df6c8dec555b}, !- Handle
  ASHRAE 189.1-2009 ExtWall Mass ClimateZone 5, !- Name
  ,                                       !- Surface Rendering Name
  {5ef4d65c-9b4e-42c9-86ee-e13022a70268}, !- Layer 1
  {318a446e-a3e3-4a7a-90d8-9b0b64f96f95}, !- Layer 2
  {3b605b88-2cc3-47cd-bf27-90b60db60bca}, !- Layer 3
  {84a19d71-0e4d-4329-ae5f-5ca09e871200}; !- Layer 4

OS:StandardsInformation:Construction,
  {a25e11b7-23db-4911-9e4e-3c241dde4c1b}, !- Handle
  {00ebc7b4-9789-4b86-9d71-df6c8dec555b}, !- Construction Name
  ExteriorWall,                           !- Intended Surface Type
  Mass;                                   !- Standards Construction Type

OS:Material,
  {3b605b88-2cc3-47cd-bf27-90b60db60bca}, !- Handle
  Wall Insulation [40],                   !- Name
  MediumRough,                            !- Roughness
  0.0793999999999999,                     !- Thickness {m}
  0.0432,                                 !- Conductivity {W/m-K}
  91,                                     !- Density {kg/m3}
  836.999999999999,                       !- Specific Heat {J/kg-K}
  0.9,                                    !- Thermal Absorptance
  0.5,                                    !- Solar Absorptance
  0.5;                                    !- Visible Absorptance

OS:Construction,
  {8cb926a1-3d20-4076-9c63-62022c5227eb}, !- Handle
  ASHRAE 189.1-2009 ExtWall Mass ClimateZone 6, !- Name
  ,                                       !- Surface Rendering Name
  {5ef4d65c-9b4e-42c9-86ee-e13022a70268}, !- Layer 1
  {318a446e-a3e3-4a7a-90d8-9b0b64f96f95}, !- Layer 2
  {5f5a330e-41db-47b5-9645-4f9e57aeb119}, !- Layer 3
  {84a19d71-0e4d-4329-ae5f-5ca09e871200}; !- Layer 4

OS:StandardsInformation:Construction,
  {4599d8c5-a784-4c3f-8676-47c769ab97c9}, !- Handle
  {8cb926a1-3d20-4076-9c63-62022c5227eb}, !- Construction Name
  ExteriorWall,                           !- Intended Surface Type
  Mass;                                   !- Standards Construction Type

OS:Material,
  {5f5a330e-41db-47b5-9645-4f9e57aeb119}, !- Handle
  Wall Insulation [42],                   !- Name
  MediumRough,                            !- Roughness
  0.0913999999999999,                     !- Thickness {m}
  0.0432,                                 !- Conductivity {W/m-K}
  91,                                     !- Density {kg/m3}
  836.999999999999,                       !- Specific Heat {J/kg-K}
  0.9,                                    !- Thermal Absorptance
  0.5,                                    !- Solar Absorptance
  0.5;                                    !- Visible Absorptance

OS:Construction,
  {0dd89a7e-183e-4355-a6da-2ac83688b36e}, !- Handle
  ASHRAE 189.1-2009 ExtWall Mass ClimateZone 7-8, !- Name
  ,                                       !- Surface Rendering Name
  {5ef4d65c-9b4e-42c9-86ee-e13022a70268}, !- Layer 1
  {318a446e-a3e3-4a7a-90d8-9b0b64f96f95}, !- Layer 2
  {79b60f57-00c0-4f9f-9b4e-6ec45af11836}, !- Layer 3
  {84a19d71-0e4d-4329-ae5f-5ca09e871200}; !- Layer 4

OS:StandardsInformation:Construction,
  {4408c323-8184-4cf4-b5d5-8e814f23d4bb}, !- Handle
  {0dd89a7e-183e-4355-a6da-2ac83688b36e}, !- Construction Name
  ExteriorWall,                           !- Intended Surface Type
  Mass;                                   !- Standards Construction Type

OS:Material,
  {79b60f57-00c0-4f9f-9b4e-6ec45af11836}, !- Handle
  Wall Insulation [44],                   !- Name
  MediumRough,                            !- Roughness
  0.1104,                                 !- Thickness {m}
  0.0432,                                 !- Conductivity {W/m-K}
  91,                                     !- Density {kg/m3}
  836.999999999999,                       !- Specific Heat {J/kg-K}
  0.9,                                    !- Thermal Absorptance
  0.5,                                    !- Solar Absorptance
  0.5;                                    !- Visible Absorptance

OS:Construction,
  {d7f737e9-990b-4021-8f6b-a7c7f14e1de7}, !- Handle
  ASHRAE 189.1-2009 ExtWall Mass ClimateZone alt-res 1, !- Name
  ,                                       !- Surface Rendering Name
  {5ef4d65c-9b4e-42c9-86ee-e13022a70268}, !- Layer 1
  {318a446e-a3e3-4a7a-90d8-9b0b64f96f95}, !- Layer 2
  {2419de32-01c7-4d3d-9634-0bbcb5c2675c}, !- Layer 3
  {84a19d71-0e4d-4329-ae5f-5ca09e871200}; !- Layer 4

OS:StandardsInformation:Construction,
  {664bb8bd-ab83-41be-8a41-dcc81b49aaf2}, !- Handle
  {d7f737e9-990b-4021-8f6b-a7c7f14e1de7}, !- Construction Name
  ExteriorWall,                           !- Intended Surface Type
  Mass;                                   !- Standards Construction Type

OS:Construction,
  {f279c691-65ca-4803-b5f2-57028819ea8c}, !- Handle
  ASHRAE 189.1-2009 ExtWall Mass ClimateZone alt-res 2, !- Name
  ,                                       !- Surface Rendering Name
  {5ef4d65c-9b4e-42c9-86ee-e13022a70268}, !- Layer 1
  {318a446e-a3e3-4a7a-90d8-9b0b64f96f95}, !- Layer 2
  {baae8ba2-13dc-46bf-9787-f8bcdad2ec63}, !- Layer 3
  {84a19d71-0e4d-4329-ae5f-5ca09e871200}; !- Layer 4

OS:StandardsInformation:Construction,
  {deb5baa8-8bc0-44d3-8cb7-b004225a65a5}, !- Handle
  {f279c691-65ca-4803-b5f2-57028819ea8c}, !- Construction Name
  ExteriorWall,                           !- Intended Surface Type
  Mass;                                   !- Standards Construction Type

OS:Construction,
  {05ba22e4-052f-4618-81a9-246306674ccb}, !- Handle
  ASHRAE 189.1-2009 ExtWall Mass ClimateZone alt-res 3, !- Name
  ,                                       !- Surface Rendering Name
  {5ef4d65c-9b4e-42c9-86ee-e13022a70268}, !- Layer 1
  {318a446e-a3e3-4a7a-90d8-9b0b64f96f95}, !- Layer 2
  {31b3d84f-1972-4504-b0c5-ea2ec2119e2d}, !- Layer 3
  {84a19d71-0e4d-4329-ae5f-5ca09e871200}; !- Layer 4

OS:StandardsInformation:Construction,
  {51c0442e-5920-4624-8dfb-0b0894faa0ad}, !- Handle
  {05ba22e4-052f-4618-81a9-246306674ccb}, !- Construction Name
  ExteriorWall,                           !- Intended Surface Type
  Mass;                                   !- Standards Construction Type

OS:Construction,
  {84abeb00-ee07-41ee-b911-8063c54859be}, !- Handle
  ASHRAE 189.1-2009 ExtWall Mass ClimateZone alt-res 4, !- Name
  ,                                       !- Surface Rendering Name
  {5ef4d65c-9b4e-42c9-86ee-e13022a70268}, !- Layer 1
  {318a446e-a3e3-4a7a-90d8-9b0b64f96f95}, !- Layer 2
  {3b605b88-2cc3-47cd-bf27-90b60db60bca}, !- Layer 3
  {84a19d71-0e4d-4329-ae5f-5ca09e871200}; !- Layer 4

OS:StandardsInformation:Construction,
  {21f49695-046d-49ba-baf0-fd09a67208a2}, !- Handle
  {84abeb00-ee07-41ee-b911-8063c54859be}, !- Construction Name
  ExteriorWall,                           !- Intended Surface Type
  Mass;                                   !- Standards Construction Type

OS:Construction,
  {372da357-d51a-4ae7-83da-b4b6410ce59d}, !- Handle
  ASHRAE 189.1-2009 ExtWall Mass ClimateZone alt-res 5, !- Name
  ,                                       !- Surface Rendering Name
  {5ef4d65c-9b4e-42c9-86ee-e13022a70268}, !- Layer 1
  {318a446e-a3e3-4a7a-90d8-9b0b64f96f95}, !- Layer 2
  {5f5a330e-41db-47b5-9645-4f9e57aeb119}, !- Layer 3
  {84a19d71-0e4d-4329-ae5f-5ca09e871200}; !- Layer 4

OS:StandardsInformation:Construction,
  {35282c9f-4752-485e-8014-0e35a88b5243}, !- Handle
  {372da357-d51a-4ae7-83da-b4b6410ce59d}, !- Construction Name
  ExteriorWall,                           !- Intended Surface Type
  Mass;                                   !- Standards Construction Type

OS:Construction,
  {3d6cb875-238d-4f45-966a-6422da2680a3}, !- Handle
  ASHRAE 189.1-2009 ExtWall Mass ClimateZone alt-res 6, !- Name
  ,                                       !- Surface Rendering Name
  {5ef4d65c-9b4e-42c9-86ee-e13022a70268}, !- Layer 1
  {318a446e-a3e3-4a7a-90d8-9b0b64f96f95}, !- Layer 2
  {79b60f57-00c0-4f9f-9b4e-6ec45af11836}, !- Layer 3
  {84a19d71-0e4d-4329-ae5f-5ca09e871200}; !- Layer 4

OS:StandardsInformation:Construction,
  {b1ed8945-2b61-49a9-945a-11462fca981c}, !- Handle
  {3d6cb875-238d-4f45-966a-6422da2680a3}, !- Construction Name
  ExteriorWall,                           !- Intended Surface Type
  Mass;                                   !- Standards Construction Type

OS:Construction,
  {bd963b23-afa8-4d02-8476-08b42e09017e}, !- Handle
  ASHRAE 189.1-2009 ExtWall Mass ClimateZone alt-res 7, !- Name
  ,                                       !- Surface Rendering Name
  {5ef4d65c-9b4e-42c9-86ee-e13022a70268}, !- Layer 1
  {318a446e-a3e3-4a7a-90d8-9b0b64f96f95}, !- Layer 2
  {79b60f57-00c0-4f9f-9b4e-6ec45af11836}, !- Layer 3
  {84a19d71-0e4d-4329-ae5f-5ca09e871200}; !- Layer 4

OS:StandardsInformation:Construction,
  {76b0036a-5bbe-485a-a27d-ac43dea7a5d9}, !- Handle
  {bd963b23-afa8-4d02-8476-08b42e09017e}, !- Construction Name
  ExteriorWall,                           !- Intended Surface Type