
OS:Version,
  {de09670d-6ade-4698-bd9d-6b358c4e81e8}, !- Handle
  1.2.3;                                  !- Version Identifier

OS:Construction,
  {62672be8-d896-4384-962a-a3d1c492158b}, !- Handle
  ASHRAE 189.1-2009 AtticFloor ClimateZone 1-8, !- Name
  ,                                       !- Surface Rendering Name
  {6de342ad-a542-4cc5-8915-10791ca705f7}, !- Layer 1
  {7c1b5da4-571f-4bfd-8ed5-a209e3913f5f}, !- Layer 2
  {6de342ad-a542-4cc5-8915-10791ca705f7}; !- Layer 3

OS:StandardsInformation:Construction,
  {08445d79-ef1d-41f5-a7ad-2967fdac5a27}, !- Handle
  {62672be8-d896-4384-962a-a3d1c492158b}, !- Construction Name
  AtticFloor,                             !- Intended Surface Type
  WoodFramed;                             !- Standards Construction Type

OS:Material,
  {6de342ad-a542-4cc5-8915-10791ca705f7}, !- Handle
  1/2IN Gypsum,                           !- Name
  Smooth,                                 !- Roughness
  0.0127,                                 !- Thickness {m}
  0.16,                                   !- Conductivity {W/m-K}
  784.9,                                  !- Density {kg/m3}
  830.000000000001,                       !- Specific Heat {J/kg-K}
  0.9,                                    !- Thermal Absorptance
  0.92,                                   !- Solar Absorptance
  0.92;                                   !- Visible Absorptance

OS:Material,
  {7c1b5da4-571f-4bfd-8ed5-a209e3913f5f}, !- Handle
  AtticFloor Insulation,                  !- Name
  MediumRough,                            !- Roughness
  0.2379,                                 !- Thickness {m}
  0.049,                                  !- Conductivity {W/m-K}
  265,                                    !- Density {kg/m3}
  836.800000000001,                       !- Specific Heat {J/kg-K}
  0.9,                                    !- Thermal Absorptance
  0.7,                                    !- Solar Absorptance
  0.7;                                    !- Visible Absorptance

OS:Construction,
  {8f26fd63-bbcd-4347-823c-a4ac12dbc76b}, !- Handle
  ASHRAE 189.1-2009 ExtRoof IEAD ClimateZone 1, !- Name
  ,                                       !- Surface Rendering Name
  {8769c91d-7635-4f89-bb2e-cd7ef0e78026}, !- Layer 1
  {2eab9909-3e44-4f64-b852-fe13b545318d}, !- Layer 2
  {5d56d562-da16-4e9a-8ef2-fcdda9b08a1c}; !- Layer 3

OS:StandardsInformation:Construction,
  {c870c6fe-d58e-4764-9e67-0e74b398b8df}, !- Handle
  {8f26fd63-bbcd-4347-823c-a4ac12dbc76b}, !- Construction Name
  ExteriorRoof,                           !- Intended Surface Type
  IEAD;                                   !- Standards Construction Type

OS:Material,
  {8769c91d-7635-4f89-bb2e-cd7ef0e78026}, !- Handle
  Roof Membrane,                          !- Name
  VeryRough,                              !- Roughness
  0.0095,                                 !- Thickness {m}
  0.16,                                   !- Conductivity {W/m-K}
  1121.29,                                !- Density {kg/m3}
  1460,                                   !- Specific Heat {J/kg-K}
  0.9,                                    !- Thermal Absorptance
  0.7,                                    !- Solar Absorptance
  0.7;                                    !- Visible Absorptance

OS:Material,
  {2eab9909-3e44-4f64-b852-fe13b545318d}, !- Handle
  Roof Insulation [18],                   !- Name
  MediumRough,                            !- Roughness
  0.1693,                                 !- Thickness {m}
  0.049,                                  !- Conductivity {W/m-K}
  265,                                    !- Density {kg/m3}
  836.800000000001,                       !- Specific Heat {J/kg-K}
  0.9,                                    !- Thermal Absorptance
  0.7,                                    !- Solar Absorptance
  0.7;                                    !- Visible Absorptance

OS:Material,
  {5d56d562-da16-4e9a-8ef2-fcdda9b08a1c}, !- Handle
  Metal Decking,                          !- Name
  MediumSmooth,                           !- Roughness
  0.0015,                                 !- Thickness {m}
  45.006,                                 !- Conductivity {W/m-K}
  7680,                                   !- Density {kg/m3}
  418.4,                                  !- Specific Heat {J/kg-K}
  0.9,                                    !- Thermal Absorptance
  0.7,                                    !- Solar Absorptance
  0.3;                                    !- Visible Absorptance

OS:Construction,
  {af54f964-da41-41ef-bfea-14632fd70df5}, !- Handle
  ASHRAE 189.1-2009 ExtRoof IEAD ClimateZone 2-5, !- Name
  ,                                       !- Surface Rendering Name
  {8769c91d-7635-4f89-bb2e-cd7ef0e78026}, !- Layer 1
  {6c5ce333-5c9c-421b-ba95-e7a4c687ea84}, !- Layer 2
  {5d56d562-da16-4e9a-8ef2-fcdda9b08a1c}; !- Layer 3

OS:StandardsInformation:Construction,
  {a546ac84-e1a5-4b9b-8cb1-df5d53371a78}, !- Handle
  {af54f964-da41-41ef-bfea-14632fd70df5}, !- Construction Name
  ExteriorRoof,                           !- Intended Surface Type
  IEAD;                                   !- Standards Construction Type

OS:Material,
  {6c5ce333-5c9c-421b-ba95-e7a4c687ea84}, !- Handle
  Roof Insulation [21],                   !- Name
  MediumRough,                            !- Roughness
  0.2105,                                 !- Thickness {m}
  0.049,                                  !- Conductivity {W/m-K}
  265,                                    !- Density {kg/m3}
  836.800000000001,                       !- Specific Heat {J/kg-K}
  0.9,                                    !- Thermal Absorptance
  0.7,                                    !- Solar Absorptance
  0.7;                                    !- Visible Absorptance

OS:Construction,
  {5cd01fb6-0550-41ce-b4db-4047e5640a88}, !- Handle
  ASHRAE 189.1-2009 ExtRoof IEAD ClimateZone 6, !- Name
  ,                                       !- Surface Rendering Name
  {8769c91d-7635-4f89-bb2e-cd7ef0e78026}, !- Layer 1
  {67f6d6e0-64dd-4e5f-8f40-508af8547557}, !- Layer 2
  {5d56d562-da16-4e9a-8ef2-fcdda9b08a1c}; !- Layer 3

OS:StandardsInformation:Construction,
  {1b94addc-0581-4f99-b067-ac3fea858bac}, !- Handle
  {5cd01fb6-0550-41ce-b4db-4047e5640a88}, !- Construction Name
  ExteriorRoof,                           !- Intended Surface Type
  IEAD;                                   !- Standards Construction Type

OS:Material,
  {67f6d6e0-64dd-4e5f-8f40-508af8547557}, !- Handle
  Roof Insulation [24],                   !- Name
  MediumRough,                            !- Roughness
  0.260100000000001,                      !- Thickness {m}
  0.049,                                  !- Conductivity {W/m-K}
  265,                                    !- Density {kg/m3}
  836.800000000001,                       !- Specific Heat {J/kg-K}
  0.9,                                    !- Thermal Absorptance
  0.7,                                    !- Solar Absorptance
  0.7;                                    !- Visible Absorptance

OS:Construction,
  {0e34902c-8a83-45d0-94b5-bad8e766eec2}, !- Handle
  ASHRAE 189.1-2009 ExtRoof IEAD ClimateZone 7-8, !- Name
  ,                                       !- Surface Rendering Name
  {8769c91d-7635-4f89-bb2e-cd7ef0e78026}, !- Layer 1
  {3c2127ac-8c12-4b78-b116-b379f51d62e6}, !- Layer 2
  {5d56d562-da16-4e9a-8ef2-fcdda9b08a1c}; !- Layer 3

OS:StandardsInformation:Construction,
  {941de787-4476-4189-b2f8-6cedf31a3ba3}, !- Handle
  {0e34902c-8a83-45d0-94b5-bad8e766eec2}, !- Construction Name
  ExteriorRoof,                           !- Intended Surface Type
  IEAD;                                   !- Standards Construction Type

OS:Material,
  {3c2127ac-8c12-4b78-b116-b379f51d62e6}, !- Handle
  Roof Insulation [26],                   !- Name
  MediumRough,                            !- Roughness
  0.2941,                                 !- Thickness {m}
  0.049,                                  !- Conductivity {W/m-K}
  265,                                    !- Density {kg/m3}
  836.800000000001,                       !- Specific Heat {J/kg-K}
  0.9,                                    !- Thermal Absorptance
  0.7,                                    !- Solar Absorptance
  0.7;                                    !- Visible Absorptance

OS:Construction,
  {e10b22b7-fd82-4588-a8e2-67241183d181}, !- Handle
  ASHRAE 189.1-2009 ExtRoof Metal ClimateZone 1, !- Name
  ,                                       !- Surface Rendering Name
  {29cfc074-af94-4ca4-aa9e-ef446b94426f}, !- Layer 1
  {e19e015c-41fa-4494-8d88-6fca7a10aba1}; !- Layer 2

OS:StandardsInformation:Construction,
  {e1dd2d9b-d165-430d-82eb-990f2c5c72f1}, !- Handle
  {e10b22b7-fd82-4588-a8e2-67241183d181}, !- Construction Name
  ExteriorRoof,                           !- Intended Surface Type
  Metal;                                  !- Standards Construction Type

OS:Material,
  {29cfc074-af94-4ca4-aa9e-ef446b94426f}, !- Handle
  Metal Roofing,                          !- Name
  MediumSmooth,                           !- Roughness
  0.0015,                                 !- Thickness {m}
  45.006,                                 !- Conductivity {W/m-K}
  7680,                                   !- Density {kg/m3}
  418.4,                                  !- Specific Heat {J/kg-K}
  0.9,                                    !- Thermal Absorptance
  0.3,                                    !- Solar Absorptance
  0.3;                                    !- Visible Absorptance

OS:Material,
  {e19e015c-41fa-4494-8d88-6fca7a10aba1}, !- Handle
  Roof Insulation [19],                   !- Name
  MediumRough,                            !- Roughness
  0.1868,                                 !- Thickness {m}
  0.049,                                  !- Conductivity {W/m-K}
  265,                                    !- Density {kg/m3}
  836.800000000001,                       !- Specific Heat {J/kg-K}
  0.9,                                    !- Thermal Absorptance
  0.7,                                    !- Solar Absorptance
  0.7;                                    !- Visible Absorptance

OS:Construction,
  {a1286cad-807c-4fff-b9d5-04275a9563c1}, !- Handle
  ASHRAE 189.1-2009 ExtRoof Metal ClimateZone 2-5, !- Name
  ,                                       !- Surface Rendering Name
  {29cfc074-af94-4ca4-aa9e-ef446b94426f}, !- Layer 1
  {a63d9aee-1b21-44c7-b97a-2afbdeef4a44}; !- Layer 2

OS:StandardsInformation:Construction,
  {037031bf-2a0b-448c-9b4a-190b36534a33}, !- Handle
  {a1286cad-807c-4fff-b9d5-04275a9563c1}, !- Construction Name
  ExteriorRoof,                           !- Intended Surface Type
  Metal;                                  !- Standards Construction Type

OS:Material,
  {a63d9aee-1b21-44c7-b97a-2afbdeef4a44}, !- Handle
  Roof Insulation [22],                   !- Name
  MediumRough,                            !- Roughness
  0.2358,                                 !- Thickness {m}
  0.049,                                  !- Conductivity {W/m-K}
  265,                                    !- Density {kg/m3}
  836.800000000001,                       !- Specific Heat {J/kg-K}
  0.9,                                    !- Thermal Absorptance
  0.7,                                    !- Solar Absorptance
  0.7;                                    !- Visible Absorptance

OS:Construction,
  {e5bdc453-ba53-4ca6-b5b9-5d488efb0523}, !- Handle
  ASHRAE 189.1-2009 ExtRoof Metal ClimateZone 6, !- Name
  ,                                       !- Surface Rendering Name
  {29cfc074-af94-4ca4-aa9e-ef446b94426f}, !- Layer 1
  {11ac5286-1793-4ddc-b4f4-cc9a3aa9f8e0}; !- Layer 2

OS:StandardsInformation:Construction,
  {5b55e974-d045-4320-8080-353595c9ab88}, !- Handle
  {e5bdc453-ba53-4ca6-b5b9-5d488efb0523}, !- Construction Name
  ExteriorRoof,                           !- Intended Surface Type
  Metal;                                  !- Standards Construction Type

OS:Material,
  {11ac5286-1793-4ddc-b4f4-cc9a3aa9f8e0}, !- Handle
  Roof Insulation [25],                   !- Name
  MediumRough,                            !- Roughness
  0.263,                                  !- Thickness {m}
  0.049,                                  !- Conductivity {W/m-K}
  265,                                    !- Density {kg/m3}
  836.800000000001,                       !- Specific Heat {J/kg-K}
  0.9,                                    !- Thermal Absorptance
  0.7,                                    !- Solar Absorptance
  0.7;                                    !- Visible Absorptance

OS:Construction,
  {8a554f61-cf57-470f-8f10-17c0546a450c}, !- Handle
  ASHRAE 189.1-2009 ExtRoof Metal ClimateZone 7-8, !- Name
  ,                                       !- Surface Rendering Name
  {29cfc074-af94-4ca4-aa9e-ef446b94426f}, !- Layer 1
  {d1484074-3810-46e4-a8b1-3f49213601ed}; !- Layer 2

OS:StandardsInformation:Construction,
  {a379335c-cb52-4151-b46d-b4dc625fea6f}, !- Handle
  {8a554f61-cf57-470f-8f10-17c0546a450c}, !- Construction Name
  ExteriorRoof,                           !- Intended Surface Type
  Metal;                                  !- Standards Construction Type

OS:Material,
  {d1484074-3810-46e4-a8b1-3f49213601ed}, !- Handle
  Roof Insulation [27],                   !- Name
  MediumRough,                            !- Roughness
  0.297000000000001,                      !- Thickness {m}
  0.049,                                  !- Conductivity {W/m-K}
  265,                                    !- Density {kg/m3}
  836.800000000001,                       !- Specific Heat {J/kg-K}
  0.9,                                    !- Thermal Absorptance
  0.7,                                    !- Solar Absorptance
  0.7;                                    !- Visible Absorptance

OS:Construction,
  {ff44f062-963f-4953-a32c-340ac1475c29}, !- Handle
  ASHRAE 189.1-2009 ExtWall Mass ClimateZone 1, !- Name
  ,                                       !- Surface Rendering Name
  {76639ceb-28c9-45bc-a142-8149d130ffec}, !- Layer 1
  {20c1fb3d-8d3c-41d6-922b-97987fce8373}, !- Layer 2
  {d921a399-5439-430b-aae3-32998124a34c}, !- Layer 3
  {6de342ad-a542-4cc5-8915-10791ca705f7}; !- Layer 4

OS:StandardsInformation:Construction,
  {1d77c54d-b768-4dbd-9f2f-082a11f9aec8}, !- Handle
  {ff44f062-963f-4953-a32c-340ac1475c29}, !- Construction Name
  ExteriorWall,                           !- Intended Surface Type
  Mass;                                   !- Standards Construction Type

OS:Material,
  {76639ceb-28c9-45bc-a142-8149d130ffec}, !- Handle
  1IN Stucco,                             !- Name
  Smooth,                                 !- Roughness
  0.0253,                                 !- Thickness {m}
  0.691799999999999,                      !- Conductivity {W/m-K}
  1858,                                   !- Density {kg/m3}
  836.999999999999,                       !- Specific Heat {J/kg-K}
  0.9,                                    !- Thermal Absorptance
  0.92,                                   !- Solar Absorptance
  0.92;                                   !- Visible Absorptance

OS:Material,
  {20c1fb3d-8d3c-41d6-922b-97987fce8373}, !- Handle
  8IN Concrete HW,                        !- Name
  MediumRough,                            !- Roughness
  0.2033,                                 !- Thickness {m}
  1.72959999999999,                       !- Conductivity {W/m-K}
  2242.99999999999,                       !- Density {kg/m3}
  836.999999999999,                       !- Specific Heat {J/kg-K}
  0.9,                                    !- Thermal Absorptance
  0.65,                                   !- Solar Absorptance
  0.65;                                   !- Visible Absorptance

OS:Material,
  {d921a399-5439-430b-aae3-32998124a34c}, !- Handle
  Wall Insulation [31],                   !- Name
  MediumRough,                            !- Roughness
  0.0337000000000001,                     !- Thickness {m}
  0.0432,                                 !- Conductivity {W/m-K}
  91,                                     !- Density {kg/m3}
  836.999999999999,                       !- Specific Heat {J/kg-K}
  0.9,                                    !- Thermal Absorptance
  0.5,                                    !- Solar Absorptance
  0.5;                                    !- Visible Absorptance

OS:Construction,
  {f80b5ab7-4431-4946-afa4-86128d3d22e1}, !- Handle
  ASHRAE 189.1-2009 ExtWall Mass ClimateZone 2, !- Name
  ,                                       !- Surface Rendering Name
  {76639ceb-28c9-45bc-a142-8149d130ffec}, !- Layer 1
  {20c1fb3d-8d3c-41d6-922b-97987fce8373}, !- Layer 2
  {b750b29d-fe8d-44b8-89d7-74b4ce6c5452}, !- Layer 3
  {6de342ad-a542-4cc5-8915-10791ca705f7}; !- Layer 4

OS:StandardsInformation:Construction,
  {d7141a24-e1de-4541-8145-e9f4c626aa87}, !- Handle
  {f80b5ab7-4431-4946-afa4-86128d3d22e1}, !- Construction Name
  ExteriorWall,                           !- Intended Surface Type
  Mass;                                   !- Standards Construction Type

OS:Material,
  {b750b29d-fe8d-44b8-89d7-74b4ce6c5452}, !- Handle
  Wall Insulation [35],                   !- Name
  MediumRough,                            !- Roughness
  0.0452,                                 !- Thickness {m}
  0.0432,                                 !- Conductivity {W/m-K}
  91,                                     !- Density {kg/m3}
  836.999999999999,                       !- Specific Heat {J/kg-K}
  0.9,                                    !- Thermal Absorptance
  0.5,                                    !- Solar Absorptance
  0.5;                                    !- Visible Absorptance

OS:Construction,
  {990609a9-5e7b-4ef7-91bd-7f4354de0215}, !- Handle
  ASHRAE 189.1-2009 ExtWall Mass ClimateZone 3, !- Name
  ,                                       !- Surface Rendering Name
  {76639ceb-28c9-45bc-a142-8149d130ffec}, !- Layer 1
  {20c1fb3d-8d3c-41d6-922b-97987fce8373}, !- Layer 2
  {7bc4b68b-dbaf-41bb-a811-86eebcbc9573}, !- Layer 3
  {6de342ad-a542-4cc5-8915-10791ca705f7}; !- Layer 4

OS:StandardsInformation:Construction,
  {91fa1e5c-e9bd-4b99-b093-7554d2da0488}, !- Handle
  {990609a9-5e7b-4ef7-91bd-7f4354de0215}, !- Construction Name
  ExteriorWall,                           !- Intended Surface Type
  Mass;                                   !- Standards Construction Type

OS:Material,
  {7bc4b68b-dbaf-41bb-a811-86eebcbc9573}, !- Handle
  Wall Insulation [36],                   !- Name
  MediumRough,                            !- Roughness
  0.0565999999999999,                     !- Thickness {m}
  0.0432,                                 !- Conductivity {W/m-K}
  91,                                     !- Density {kg/m3}
  836.999999999999,                       !- Specific Heat {J/kg-K}
  0.9,                                    !- Thermal Absorptance
  0.5,                                    !- Solar Absorptance
  0.5;                                    !- Visible Absorptance

OS:Construction,
  {059e921e-ebd5-47ae-a6e3-6b1c62592744}, !- Handle
  ASHRAE 189.1-2009 ExtWall Mass ClimateZone 4, !- Name
  ,                                       !- Surface Rendering Name
  {76639ceb-28c9-45bc-a142-8149d130ffec}, !- Layer 1
  {20c1fb3d-8d3c-41d6-922b-97987fce8373}, !- Layer 2
  {176231ec-11ab-47e7-8545-f665dd6d108c}, !- Layer 3
  {6de342ad-a542-4cc5-8915-10791ca705f7}; !- Layer 4

OS:StandardsInformation:Construction,
  {7c887c80-654b-4f68-9691-a82465888fe2}, !- Handle
  {059e921e-ebd5-47ae-a6e3-6b1c62592744}, !- Construction Name
  ExteriorWall,                           !- Intended Surface Type
  Mass;                                   !- Standards Construction Type

OS:Material,
  {176231ec-11ab-47e7-8545-f665dd6d108c}, !- Handle
  Wall Insulation [37],                   !- Name
  MediumRough,                            !- Roughness
  0.0680999999999999,                     !- Thickness {m}
  0.0432,                                 !- Conductivity {W/m-K}
  91,                                     !- Density {kg/m3}
  836.999999999999,                       !- Specific Heat {J/kg-K}
  0.9,                                    !- Thermal Absorptance
  0.5,                                    !- Solar Absorptance
  0.5;                                    !- Visible Absorptance

OS:Construction,
  {d0a4f108-24eb-4a8f-9003-59f60d7777df}, !- Handle
  ASHRAE 189.1-2009 ExtWall Mass ClimateZone 5, !- Name
  ,                                       !- Surface Rendering Name
  {76639ceb-28c9-45bc-a142-8149d130ffec}, !- Layer 1
  {20c1fb3d-8d3c-41d6-922b-97987fce8373}, !- Layer 2
  {e83832fd-e7a4-4369-a6f6-7102c89819ea}, !- Layer 3
  {6de342ad-a542-4cc5-8915-10791ca705f7}; !- Layer 4

OS:StandardsInformation:Construction,
  {21b6c271-260f-44b7-815d-3d4a8c21743d}, !- Handle
  {d0a4f108-24eb-4a8f-9003-59f60d7777df}, !- Construction Name
  ExteriorWall,                           !- Intended Surface Type
  Mass;                                   !- Standards Construction Type

OS:Material,
  {e83832fd-e7a4-4369-a6f6-7102c89819ea}, !- Handle
  Wall Insulation [40],                   !- Name
  MediumRough,                            !- Roughness
  0.0793999999999999,                     !- Thickness {m}
  0.0432,                                 !- Conductivity {W/m-K}
  91,                                     !- Density {kg/m3}
  836.999999999999,                       !- Specific Heat {J/kg-K}
  0.9,                                    !- Thermal Absorptance
  0.5,                                    !- Solar Absorptance
  0.5;                                    !- Visible Absorptance

OS:Construction,
  {520a199f-539d-4c05-8b97-f1569c4dec33}, !- Handle
  ASHRAE 189.1-2009 ExtWall Mass ClimateZone 6, !- Name
  ,                                       !- Surface Rendering Name
  {76639ceb-28c9-45bc-a142-8149d130ffec}, !- Layer 1
  {20c1fb3d-8d3c-41d6-922b-97987fce8373}, !- Layer 2
  {6eb4b470-4ad3-43ce-b989-e4766598e843}, !- Layer 3
  {6de342ad-a542-4cc5-8915-10791ca705f7}; !- Layer 4

OS:StandardsInformation:Construction,
  {71ced1b1-941b-46ac-9b8e-e0e12b5d11ba}, !- Handle
  {520a199f-539d-4c05-8b97-f1569c4dec33}, !- Construction Name
  ExteriorWall,                           !- Intended Surface Type
  Mass;                                   !- Standards Construction Type

OS:Material,
  {6eb4b470-4ad3-43ce-b989-e4766598e843}, !- Handle
  Wall Insulation [42],                   !- Name
  MediumRough,                            !- Roughness
  0.0913999999999999,                     !- Thickness {m}
  0.0432,                                 !- Conductivity {W/m-K}
  91,                                     !- Density {kg/m3}
  836.999999999999,                       !- Specific Heat {J/kg-K}
  0.9,                                    !- Thermal Absorptance
  0.5,                                    !- Solar Absorptance
  0.5;                                    !- Visible Absorptance

OS:Construction,
  {db7bd67a-ada2-490b-9c1f-499233fbb369}, !- Handle
  ASHRAE 189.1-2009 ExtWall Mass ClimateZone 7-8, !- Name
  ,                                       !- Surface Rendering Name
  {76639ceb-28c9-45bc-a142-8149d130ffec}, !- Layer 1
  {20c1fb3d-8d3c-41d6-922b-97987fce8373}, !- Layer 2
  {1e6e3738-d247-4417-969c-1ab7539d12cf}, !- Layer 3
  {6de342ad-a542-4cc5-8915-10791ca705f7}; !- Layer 4

OS:StandardsInformation:Construction,
  {0f1f4562-d9c2-4064-806d-001e420ddc05}, !- Handle
  {db7bd67a-ada2-490b-9c1f-499233fbb369}, !- Construction Name
  ExteriorWall,                           !- Intended Surface Type
  Mass;                                   !- Standards Construction Type

OS:Material,
  {1e6e3738-d247-4417-969c-1ab7539d12cf}, !- Handle
  Wall Insulation [44],                   !- Name
  MediumRough,                            !- Roughness
  0.1104,                                 !- Thickness {m}
  0.0432,                                 !- Conductivity {W/m-K}
  91,                                     !- Density {kg/m3}
  836.999999999999,                       !- Specific Heat {J/kg-K}
  0.9,                                    !- Thermal Absorptance
  0.5,                                    !- Solar Absorptance
  0.5;                                    !- Visible Absorptance

OS:Construction,
  {7e8067e3-3b17-4f95-a48c-02665435702d}, !- Handle
  ASHRAE 189.1-2009 ExtWall Mass ClimateZone alt-res 1, !- Name
  ,                                       !- Surface Rendering Name
  {76639ceb-28c9-45bc-a142-8149d130ffec}, !- Layer 1
  {20c1fb3d-8d3c-41d6-922b-97987fce8373}, !- Layer 2
  {b750b29d-fe8d-44b8-89d7-74b4ce6c5452}, !- Layer 3
  {6de342ad-a542-4cc5-8915-10791ca705f7}; !- Layer 4

OS:StandardsInformation:Construction,
  {9a63b0db-67a2-464b-bf2c-34cd18ca7149}, !- Handle
  {7e8067e3-3b17-4f95-a48c-02665435702d}, !- Construction Name
  ExteriorWall,                           !- Intended Surface Type
  Mass;                                   !- Standards Construction Type

OS:Construction,
  {22c73092-6785-48c6-b77b-d42047fd3a21}, !- Handle
  ASHRAE 189.1-2009 ExtWall Mass ClimateZone alt-res 2, !- Name
  ,                                       !- Surface Rendering Name
  {76639ceb-28c9-45bc-a142-8149d130ffec}, !- Layer 1
  {20c1fb3d-8d3c-41d6-922b-97987fce8373}, !- Layer 2
  {7bc4b68b-dbaf-41bb-a811-86eebcbc9573}, !- Layer 3
  {6de342ad-a542-4cc5-8915-10791ca705f7}; !- Layer 4

OS:StandardsInformation:Construction,
  {d5fe16e8-641c-45b6-a9b8-103fabc037c4}, !- Handle
  {22c73092-6785-48c6-b77b-d42047fd3a21}, !- Construction Name
  ExteriorWall,                           !- Intended Surface Type
  Mass;                                   !- Standards Construction Type

OS:Construction,
  {c34a5cf8-8a2c-462d-bbed-482f28560fb0}, !- Handle
  ASHRAE 189.1-2009 ExtWall Mass ClimateZone alt-res 3, !- Name
  ,                                       !- Surface Rendering Name
  {76639ceb-28c9-45bc-a142-8149d130ffec}, !- Layer 1
  {20c1fb3d-8d3c-41d6-922b-97987fce8373}, !- Layer 2
  {176231ec-11ab-47e7-8545-f665dd6d108c}, !- Layer 3
  {6de342ad-a542-4cc5-8915-10791ca705f7}; !- Layer 4

OS:StandardsInformation:Construction,
  {b65b2437-7904-405f-a7ba-c36fd8a0584d}, !- Handle
  {c34a5cf8-8a2c-462d-bbed-482f28560fb0}, !- Construction Name
  ExteriorWall,                           !- Intended Surface Type
  Mass;                                   !- Standards Construction Type

OS:Construction,
  {2ee3685e-7ffd-47df-8bbb-291e39928a9a}, !- Handle
  ASHRAE 189.1-2009 ExtWall Mass ClimateZone alt-res 4, !- Name
  ,                                       !- Surface Rendering Name
  {76639ceb-28c9-45bc-a142-8149d130ffec}, !- Layer 1
  {20c1fb3d-8d3c-41d6-922b-97987fce8373}, !- Layer 2
  {e83832fd-e7a4-4369-a6f6-7102c89819ea}, !- Layer 3
  {6de342ad-a542-4cc5-8915-10791ca705f7}; !- Layer 4

OS:StandardsInformation:Construction,
  {e4a078b5-3de0-4e9f-af17-c4d062185867}, !- Handle
  {2ee3685e-7ffd-47df-8bbb-291e39928a9a}, !- Construction Name
  ExteriorWall,                           !- Intended Surface Type
  Mass;                                   !- Standards Construction Type

OS:Construction,
  {0b8dbcd7-3e9b-476c-9f0d-28c677e14138}, !- Handle
  ASHRAE 189.1-2009 ExtWall Mass ClimateZone alt-res 5, !- Name
  ,                                       !- Surface Rendering Name
  {76639ceb-28c9-45bc-a142-8149d130ffec}, !- Layer 1
  {20c1fb3d-8d3c-41d6-922b-97987fce8373}, !- Layer 2
  {6eb4b470-4ad3-43ce-b989-e4766598e843}, !- Layer 3
  {6de342ad-a542-4cc5-8915-10791ca705f7}; !- Layer 4

OS:StandardsInformation:Construction,
  {68f32f7d-ecf0-445b-9ddb-dc9743790fa7}, !- Handle
  {0b8dbcd7-3e9b-476c-9f0d-28c677e14138}, !- Construction Name
  ExteriorWall,                           !- Intended Surface Type
  Mass;                                   !- Standards Construction Type

OS:Construction,
  {ca08fca7-10a5-4831-878a-d08833cea5bd}, !- Handle
  ASHRAE 189.1-2009 ExtWall Mass ClimateZone alt-res 6, !- Name
  ,                                       !- Surface Rendering Name
  {76639ceb-28c9-45bc-a142-8149d130ffec}, !- Layer 1
  {20c1fb3d-8d3c-41d6-922b-97987fce8373}, !- Layer 2
  {1e6e3738-d247-4417-969c-1ab7539d12cf}, !- Layer 3
  {6de342ad-a542-4cc5-8915-10791ca705f7}; !- Layer 4

OS:StandardsInformation:Construction,
  {3942f447-5442-4c6d-bbc2-02eba5453ea2}, !- Handle
  {ca08fca7-10a5-4831-878a-d08833cea5bd}, !- Construction Name
  ExteriorWall,                           !- Intended Surface Type
  Mass;                                   !- Standards Construction Type

OS:Construction,
  {b1707dcd-7919-4d76-90d7-f7262abad886}, !- Handle
  ASHRAE 189.1-2009 ExtWall Mass ClimateZone alt-res 7, !- Name
  ,                                       !- Surface Rendering Name
  {76639ceb-28c9-45bc-a142-8149d130ffec}, !- Layer 1
  {20c1fb3d-8d3c-41d6-922b-97987fce8373}, !- Layer 2
  {1e6e3738-d247-4417-969c-1ab7539d12cf}, !- Layer 3
  {6de342ad-a542-4cc5-8915-10791ca705f7}; !- Layer 4

OS:StandardsInformation:Construction,
  {740fabce-8812-413e-a571-97655ad5b806}, !- Handle
  {b1707dcd-7919-4d76-90d7-f7262abad886}, !- Construction Name
  ExteriorWall,                           !- Intended Surface Type
  Mass;                                   !- Standards Construction Type

OS:Construction,
  {a72024c7-e8c2-41f6-9501-0747b0876d78}, !- Handle
  ASHRAE 189.1-2009 ExtWall Mass ClimateZone alt-res 8, !- Name