
OS:Version,
  {1bee1da5-a3b0-4f3b-8711-059b9ac246d4}, !- Handle
  1.4.0;                                  !- Version Identifier

OS:Construction,
  {2df6f2f1-7c92-4d8a-9adf-f1d859e95d10}, !- Handle
  ASHRAE 189.1-2009 AtticFloor ClimateZone 1-8, !- Name
  ,                                       !- Surface Rendering Name
  {92b7df65-fa0f-42e3-9cb9-9da41b2a826e}, !- Layer 1
  {e3c76509-a58f-481f-9f24-964db252f141}, !- Layer 2
  {92b7df65-fa0f-42e3-9cb9-9da41b2a826e}; !- Layer 3

OS:StandardsInformation:Construction,
  {c0c4e8f1-121c-4647-8278-db585ea5e994}, !- Handle
  {2df6f2f1-7c92-4d8a-9adf-f1d859e95d10}, !- Construction Name
  AtticFloor,                             !- Intended Surface Type
  WoodFramed;                             !- Standards Construction Type

OS:Material,
  {92b7df65-fa0f-42e3-9cb9-9da41b2a826e}, !- Handle
  1/2IN Gypsum,                           !- Name
  Smooth,                                 !- Roughness
  0.0127,                                 !- Thickness {m}
  0.16,                                   !- Conductivity {W/m-K}
  784.9,                                  !- Density {kg/m3}
  830.000000000001,                       !- Specific Heat {J/kg-K}
  0.9,                                    !- Thermal Absorptance
  0.4,                                    !- Solar Absorptance
  0.4;                                    !- Visible Absorptance

OS:Material,
  {e3c76509-a58f-481f-9f24-964db252f141}, !- Handle
  AtticFloor Insulation,                  !- Name
  MediumRough,                            !- Roughness
  0.2379,                                 !- Thickness {m}
  0.049,                                  !- Conductivity {W/m-K}
  265,                                    !- Density {kg/m3}
  836.800000000001,                       !- Specific Heat {J/kg-K}
  0.9,                                    !- Thermal Absorptance
  0.7,                                    !- Solar Absorptance
  0.7;                                    !- Visible Absorptance

OS:Construction,
  {648d7ec8-c216-4b96-b1c5-c20f9edda8e8}, !- Handle
  ASHRAE 189.1-2009 ExtRoof IEAD ClimateZone 1, !- Name
  ,                                       !- Surface Rendering Name
  {e16682ac-f4d1-4f44-9525-bc45543bd94d}, !- Layer 1
  {06f618ef-ef06-4202-a5bc-3f43d181ee6e}, !- Layer 2
  {6e55f585-c4fd-4515-ba2c-0cb0b65cdae4}; !- Layer 3

OS:StandardsInformation:Construction,
  {c0eba9fd-f6c5-42ab-affd-3c4863dcadca}, !- Handle
  {648d7ec8-c216-4b96-b1c5-c20f9edda8e8}, !- Construction Name
  ExteriorRoof,                           !- Intended Surface Type
  IEAD;                                   !- Standards Construction Type

OS:Material,
  {e16682ac-f4d1-4f44-9525-bc45543bd94d}, !- Handle
  Roof Membrane,                          !- Name
  VeryRough,                              !- Roughness
  0.0095,                                 !- Thickness {m}
  0.16,                                   !- Conductivity {W/m-K}
  1121.29,                                !- Density {kg/m3}
  1460,                                   !- Specific Heat {J/kg-K}
  0.9,                                    !- Thermal Absorptance
  0.7,                                    !- Solar Absorptance
  0.7;                                    !- Visible Absorptance

OS:Material,
  {06f618ef-ef06-4202-a5bc-3f43d181ee6e}, !- Handle
  Roof Insulation [18],                   !- Name
  MediumRough,                            !- Roughness
  0.1693,                                 !- Thickness {m}
  0.049,                                  !- Conductivity {W/m-K}
  265,                                    !- Density {kg/m3}
  836.800000000001,                       !- Specific Heat {J/kg-K}
  0.9,                                    !- Thermal Absorptance
  0.7,                                    !- Solar Absorptance
  0.7;                                    !- Visible Absorptance

OS:Material,
  {6e55f585-c4fd-4515-ba2c-0cb0b65cdae4}, !- Handle
  Metal Decking,                          !- Name
  MediumSmooth,                           !- Roughness
  0.0015,                                 !- Thickness {m}
  45.006,                                 !- Conductivity {W/m-K}
  7680,                                   !- Density {kg/m3}
  418.4,                                  !- Specific Heat {J/kg-K}
  0.9,                                    !- Thermal Absorptance
  0.6,                                    !- Solar Absorptance
  0.6;                                    !- Visible Absorptance

OS:Construction,
  {dcdc3691-5858-4152-b973-9cd059e07aca}, !- Handle
  ASHRAE 189.1-2009 ExtRoof IEAD ClimateZone 2-5, !- Name
  ,                                       !- Surface Rendering Name
  {e16682ac-f4d1-4f44-9525-bc45543bd94d}, !- Layer 1
  {1776b1be-3300-4ab5-b67c-fed012e68247}, !- Layer 2
  {6e55f585-c4fd-4515-ba2c-0cb0b65cdae4}; !- Layer 3

OS:StandardsInformation:Construction,
  {6d1530b8-77fe-4900-b10a-9144980837c9}, !- Handle
  {dcdc3691-5858-4152-b973-9cd059e07aca}, !- Construction Name
  ExteriorRoof,                           !- Intended Surface Type
  IEAD;                                   !- Standards Construction Type

OS:Material,
  {1776b1be-3300-4ab5-b67c-fed012e68247}, !- Handle
  Roof Insulation [21],                   !- Name
  MediumRough,                            !- Roughness
  0.2105,                                 !- Thickness {m}
  0.049,                                  !- Conductivity {W/m-K}
  265,                                    !- Density {kg/m3}
  836.800000000001,                       !- Specific Heat {J/kg-K}
  0.9,                                    !- Thermal Absorptance
  0.7,                                    !- Solar Absorptance
  0.7;                                    !- Visible Absorptance

OS:Construction,
  {7cb206b9-ae4d-46e7-8212-2015c061f4f8}, !- Handle
  ASHRAE 189.1-2009 ExtRoof IEAD ClimateZone 6, !- Name
  ,                                       !- Surface Rendering Name
  {e16682ac-f4d1-4f44-9525-bc45543bd94d}, !- Layer 1
  {5f38a067-6b5f-4f41-849f-562c09408e50}, !- Layer 2
  {6e55f585-c4fd-4515-ba2c-0cb0b65cdae4}; !- Layer 3

OS:StandardsInformation:Construction,
  {36f09472-5743-4b33-ae56-f7d4bca98e40}, !- Handle
  {7cb206b9-ae4d-46e7-8212-2015c061f4f8}, !- Construction Name
  ExteriorRoof,                           !- Intended Surface Type
  IEAD;                                   !- Standards Construction Type

OS:Material,
  {5f38a067-6b5f-4f41-849f-562c09408e50}, !- Handle
  Roof Insulation [24],                   !- Name
  MediumRough,                            !- Roughness
  0.260100000000001,                      !- Thickness {m}
  0.049,                                  !- Conductivity {W/m-K}
  265,                                    !- Density {kg/m3}
  836.800000000001,                       !- Specific Heat {J/kg-K}
  0.9,                                    !- Thermal Absorptance
  0.7,                                    !- Solar Absorptance
  0.7;                                    !- Visible Absorptance

OS:Construction,
  {b0d72255-6144-491a-b71f-5b133128963a}, !- Handle
  ASHRAE 189.1-2009 ExtRoof IEAD ClimateZone 7-8, !- Name
  ,                                       !- Surface Rendering Name
  {e16682ac-f4d1-4f44-9525-bc45543bd94d}, !- Layer 1
  {267a1816-6821-4e88-a29d-84857585a0e8}, !- Layer 2
  {6e55f585-c4fd-4515-ba2c-0cb0b65cdae4}; !- Layer 3

OS:StandardsInformation:Construction,
  {3ef9b92d-12c4-417c-91e6-10187391625d}, !- Handle
  {b0d72255-6144-491a-b71f-5b133128963a}, !- Construction Name
  ExteriorRoof,                           !- Intended Surface Type
  IEAD;                                   !- Standards Construction Type

OS:Material,
  {267a1816-6821-4e88-a29d-84857585a0e8}, !- Handle
  Roof Insulation [26],                   !- Name
  MediumRough,                            !- Roughness
  0.2941,                                 !- Thickness {m}
  0.049,                                  !- Conductivity {W/m-K}
  265,                                    !- Density {kg/m3}
  836.800000000001,                       !- Specific Heat {J/kg-K}
  0.9,                                    !- Thermal Absorptance
  0.7,                                    !- Solar Absorptance
  0.7;                                    !- Visible Absorptance

OS:Construction,
  {0219e9a7-479e-4d6d-9849-54f102c484b9}, !- Handle
  ASHRAE 189.1-2009 ExtRoof Metal ClimateZone 1, !- Name
  ,                                       !- Surface Rendering Name
  {9351decd-9681-446b-b63c-684abce56efe}, !- Layer 1
  {e1ed007b-010d-436f-a9f7-6c13c8b7bf56}, !- Layer 2
  {6e55f585-c4fd-4515-ba2c-0cb0b65cdae4}; !- Layer 3

OS:StandardsInformation:Construction,
  {865319a8-bd9b-4a20-bf13-9b239802c3cf}, !- Handle
  {0219e9a7-479e-4d6d-9849-54f102c484b9}, !- Construction Name
  ExteriorRoof,                           !- Intended Surface Type
  Metal;                                  !- Standards Construction Type

OS:Material,
  {9351decd-9681-446b-b63c-684abce56efe}, !- Handle
  Metal Roofing,                          !- Name
  MediumSmooth,                           !- Roughness
  0.0015,                                 !- Thickness {m}
  45.006,                                 !- Conductivity {W/m-K}
  7680,                                   !- Density {kg/m3}
  418.4,                                  !- Specific Heat {J/kg-K}
  0.9,                                    !- Thermal Absorptance
  0.6,                                    !- Solar Absorptance
  0.6;                                    !- Visible Absorptance

OS:Material,
  {e1ed007b-010d-436f-a9f7-6c13c8b7bf56}, !- Handle
  Roof Insulation [19],                   !- Name
  MediumRough,                            !- Roughness
  0.1868,                                 !- Thickness {m}
  0.049,                                  !- Conductivity {W/m-K}
  265,                                    !- Density {kg/m3}
  836.800000000001,                       !- Specific Heat {J/kg-K}
  0.9,                                    !- Thermal Absorptance
  0.7,                                    !- Solar Absorptance
  0.7;                                    !- Visible Absorptance

OS:Construction,
  {a0f7518c-cf86-4164-a468-22764ad69938}, !- Handle
  ASHRAE 189.1-2009 ExtRoof Metal ClimateZone 2-5, !- Name
  ,                                       !- Surface Rendering Name
  {9351decd-9681-446b-b63c-684abce56efe}, !- Layer 1
  {f46c0d39-d232-4f28-a944-adc66e8e310a}, !- Layer 2
  {6e55f585-c4fd-4515-ba2c-0cb0b65cdae4}; !- Layer 3

OS:StandardsInformation:Construction,
  {324b9979-9c41-49e3-a38f-65fa10941ea7}, !- Handle
  {a0f7518c-cf86-4164-a468-22764ad69938}, !- Construction Name
  ExteriorRoof,                           !- Intended Surface Type
  Metal;                                  !- Standards Construction Type

OS:Material,
  {f46c0d39-d232-4f28-a944-adc66e8e310a}, !- Handle
  Roof Insulation [22],                   !- Name
  MediumRough,                            !- Roughness
  0.2358,                                 !- Thickness {m}
  0.049,                                  !- Conductivity {W/m-K}
  265,                                    !- Density {kg/m3}
  836.800000000001,                       !- Specific Heat {J/kg-K}
  0.9,                                    !- Thermal Absorptance
  0.7,                                    !- Solar Absorptance
  0.7;                                    !- Visible Absorptance

OS:Construction,
  {52b2cf3a-1a63-4a77-b5a8-bec182cf6d3c}, !- Handle
  ASHRAE 189.1-2009 ExtRoof Metal ClimateZone 6, !- Name
  ,                                       !- Surface Rendering Name
  {9351decd-9681-446b-b63c-684abce56efe}, !- Layer 1
  {949b068b-fd08-4b6f-9725-968d1eb73935}, !- Layer 2
  {6e55f585-c4fd-4515-ba2c-0cb0b65cdae4}; !- Layer 3

OS:StandardsInformation:Construction,
  {02b82236-17a5-4a7a-8aed-31627fa40c66}, !- Handle
  {52b2cf3a-1a63-4a77-b5a8-bec182cf6d3c}, !- Construction Name
  ExteriorRoof,                           !- Intended Surface Type
  Metal;                                  !- Standards Construction Type

OS:Material,
  {949b068b-fd08-4b6f-9725-968d1eb73935}, !- Handle
  Roof Insulation [25],                   !- Name
  MediumRough,                            !- Roughness
  0.263,                                  !- Thickness {m}
  0.049,                                  !- Conductivity {W/m-K}
  265,                                    !- Density {kg/m3}
  836.800000000001,                       !- Specific Heat {J/kg-K}
  0.9,                                    !- Thermal Absorptance
  0.7,                                    !- Solar Absorptance
  0.7;                                    !- Visible Absorptance

OS:Construction,
  {f9309c32-ed8c-47b5-8d41-fc21b6e2ec7b}, !- Handle
  ASHRAE 189.1-2009 ExtRoof Metal ClimateZone 7-8, !- Name
  ,                                       !- Surface Rendering Name
  {9351decd-9681-446b-b63c-684abce56efe}, !- Layer 1
  {af4d5682-dc5a-4880-b25f-b74030d11545}, !- Layer 2
  {6e55f585-c4fd-4515-ba2c-0cb0b65cdae4}; !- Layer 3

OS:StandardsInformation:Construction,
  {f0de0a49-d0ca-4ae8-8da7-0b33365a7f14}, !- Handle
  {f9309c32-ed8c-47b5-8d41-fc21b6e2ec7b}, !- Construction Name
  ExteriorRoof,                           !- Intended Surface Type
  Metal;                                  !- Standards Construction Type

OS:Material,
  {af4d5682-dc5a-4880-b25f-b74030d11545}, !- Handle
  Roof Insulation [27],                   !- Name
  MediumRough,                            !- Roughness
  0.297000000000001,                      !- Thickness {m}
  0.049,                                  !- Conductivity {W/m-K}
  265,                                    !- Density {kg/m3}
  836.800000000001,                       !- Specific Heat {J/kg-K}
  0.9,                                    !- Thermal Absorptance
  0.7,                                    !- Solar Absorptance
  0.7;                                    !- Visible Absorptance

OS:Construction,
  {5d5a743d-edfd-4fe6-92b6-2702b9ebe28f}, !- Handle
  ASHRAE 189.1-2009 ExtWall Mass ClimateZone 1, !- Name
  ,                                       !- Surface Rendering Name
  {a7d37c0d-7c5c-469e-9ca5-eddb01cbcfb4}, !- Layer 1
  {fc32f351-e3b1-481b-9480-b99e91548759}, !- Layer 2
  {129df6b5-01f8-4460-8317-5a8391f09fe3}, !- Layer 3
  {92b7df65-fa0f-42e3-9cb9-9da41b2a826e}; !- Layer 4

OS:StandardsInformation:Construction,
  {6accd4fa-daaf-4768-a060-e45d3490617e}, !- Handle
  {5d5a743d-edfd-4fe6-92b6-2702b9ebe28f}, !- Construction Name
  ExteriorWall,                           !- Intended Surface Type
  Mass;                                   !- Standards Construction Type

OS:Material,
  {a7d37c0d-7c5c-469e-9ca5-eddb01cbcfb4}, !- Handle
  1IN Stucco,                             !- Name
  Smooth,                                 !- Roughness
  0.0253,                                 !- Thickness {m}
  0.691799999999999,                      !- Conductivity {W/m-K}
  1858,                                   !- Density {kg/m3}
  836.999999999999,                       !- Specific Heat {J/kg-K}
  0.9,                                    !- Thermal Absorptance
  0.92,                                   !- Solar Absorptance
  0.92;                                   !- Visible Absorptance

OS:Material,
  {fc32f351-e3b1-481b-9480-b99e91548759}, !- Handle
  8IN Concrete HW,                        !- Name
  MediumRough,                            !- Roughness
  0.2033,                                 !- Thickness {m}
  1.72959999999999,                       !- Conductivity {W/m-K}
  2242.99999999999,                       !- Density {kg/m3}
  836.999999999999,                       !- Specific Heat {J/kg-K}
  0.9,                                    !- Thermal Absorptance
  0.65,                                   !- Solar Absorptance
  0.65;                                   !- Visible Absorptance

OS:Material,
  {129df6b5-01f8-4460-8317-5a8391f09fe3}, !- Handle
  Wall Insulation [31],                   !- Name
  MediumRough,                            !- Roughness
  0.0337000000000001,                     !- Thickness {m}
  0.0432,                                 !- Conductivity {W/m-K}
  91,                                     !- Density {kg/m3}
  836.999999999999,                       !- Specific Heat {J/kg-K}
  0.9,                                    !- Thermal Absorptance
  0.5,                                    !- Solar Absorptance
  0.5;                                    !- Visible Absorptance

OS:Construction,
  {b5599f23-5e56-4253-898c-dcc632469975}, !- Handle
  ASHRAE 189.1-2009 ExtWall Mass ClimateZone 2, !- Name
  ,                                       !- Surface Rendering Name
  {a7d37c0d-7c5c-469e-9ca5-eddb01cbcfb4}, !- Layer 1
  {fc32f351-e3b1-481b-9480-b99e91548759}, !- Layer 2
  {0c37c4ae-e90e-4d95-b09c-785710cbf996}, !- Layer 3
  {92b7df65-fa0f-42e3-9cb9-9da41b2a826e}; !- Layer 4

OS:StandardsInformation:Construction,
  {997d96d5-1dd0-45c7-8650-d7397d501bdb}, !- Handle
  {b5599f23-5e56-4253-898c-dcc632469975}, !- Construction Name
  ExteriorWall,                           !- Intended Surface Type
  Mass;                                   !- Standards Construction Type

OS:Material,
  {0c37c4ae-e90e-4d95-b09c-785710cbf996}, !- Handle
  Wall Insulation [35],                   !- Name
  MediumRough,                            !- Roughness
  0.0452,                                 !- Thickness {m}
  0.0432,                                 !- Conductivity {W/m-K}
  91,                                     !- Density {kg/m3}
  836.999999999999,                       !- Specific Heat {J/kg-K}
  0.9,                                    !- Thermal Absorptance
  0.5,                                    !- Solar Absorptance
  0.5;                                    !- Visible Absorptance

OS:Construction,
  {ce634343-17d6-4168-ae69-b4e2d773b527}, !- Handle
  ASHRAE 189.1-2009 ExtWall Mass ClimateZone 3, !- Name
  ,                                       !- Surface Rendering Name
  {a7d37c0d-7c5c-469e-9ca5-eddb01cbcfb4}, !- Layer 1
  {fc32f351-e3b1-481b-9480-b99e91548759}, !- Layer 2
  {9888afc1-ca3c-4ac4-adaa-5c8a1f9d397b}, !- Layer 3
  {92b7df65-fa0f-42e3-9cb9-9da41b2a826e}; !- Layer 4

OS:StandardsInformation:Construction,
  {e499cc72-f97e-4b27-ab05-73e866435520}, !- Handle
  {ce634343-17d6-4168-ae69-b4e2d773b527}, !- Construction Name
  ExteriorWall,                           !- Intended Surface Type
  Mass;                                   !- Standards Construction Type

OS:Material,
  {9888afc1-ca3c-4ac4-adaa-5c8a1f9d397b}, !- Handle
  Wall Insulation [36],                   !- Name
  MediumRough,                            !- Roughness
  0.0565999999999999,                     !- Thickness {m}
  0.0432,                                 !- Conductivity {W/m-K}
  91,                                     !- Density {kg/m3}
  836.999999999999,                       !- Specific Heat {J/kg-K}
  0.9,                                    !- Thermal Absorptance
  0.5,                                    !- Solar Absorptance
  0.5;                                    !- Visible Absorptance

OS:Construction,
  {5bb882fb-f16c-4ae3-96e5-e593f5d342ac}, !- Handle
  ASHRAE 189.1-2009 ExtWall Mass ClimateZone 4, !- Name
  ,                                       !- Surface Rendering Name
  {a7d37c0d-7c5c-469e-9ca5-eddb01cbcfb4}, !- Layer 1
  {fc32f351-e3b1-481b-9480-b99e91548759}, !- Layer 2
  {f260fdbc-7e08-40b4-a4aa-7a10fabaa412}, !- Layer 3
  {92b7df65-fa0f-42e3-9cb9-9da41b2a826e}; !- Layer 4

OS:StandardsInformation:Construction,
  {5ddc7d9c-d963-43e9-a18a-7dc0c9331b22}, !- Handle
  {5bb882fb-f16c-4ae3-96e5-e593f5d342ac}, !- Construction Name
  ExteriorWall,                           !- Intended Surface Type
  Mass;                                   !- Standards Construction Type

OS:Material,
  {f260fdbc-7e08-40b4-a4aa-7a10fabaa412}, !- Handle
  Wall Insulation [37],                   !- Name
  MediumRough,                            !- Roughness
  0.0680999999999999,                     !- Thickness {m}
  0.0432,                                 !- Conductivity {W/m-K}
  91,                                     !- Density {kg/m3}
  836.999999999999,                       !- Specific Heat {J/kg-K}
  0.9,                                    !- Thermal Absorptance
  0.5,                                    !- Solar Absorptance
  0.5;                                    !- Visible Absorptance

OS:Construction,
  {ed69e5d4-7866-481b-9d9e-276fb9ab357e}, !- Handle
  ASHRAE 189.1-2009 ExtWall Mass ClimateZone 5, !- Name
  ,                                       !- Surface Rendering Name
  {a7d37c0d-7c5c-469e-9ca5-eddb01cbcfb4}, !- Layer 1
  {fc32f351-e3b1-481b-9480-b99e91548759}, !- Layer 2
  {59002b99-f45d-45f6-a8e6-94d64d9894a8}, !- Layer 3
  {92b7df65-fa0f-42e3-9cb9-9da41b2a826e}; !- Layer 4

OS:StandardsInformation:Construction,
  {e78c0b55-2f6c-4ebc-9ac5-67ab92a8445b}, !- Handle
  {ed69e5d4-7866-481b-9d9e-276fb9ab357e}, !- Construction Name
  ExteriorWall,                           !- Intended Surface Type
  Mass;                                   !- Standards Construction Type

OS:Material,
  {59002b99-f45d-45f6-a8e6-94d64d9894a8}, !- Handle
  Wall Insulation [40],                   !- Name
  MediumRough,                            !- Roughness
  0.0793999999999999,                     !- Thickness {m}
  0.0432,                                 !- Conductivity {W/m-K}
  91,                                     !- Density {kg/m3}
  836.999999999999,                       !- Specific Heat {J/kg-K}
  0.9,                                    !- Thermal Absorptance
  0.5,                                    !- Solar Absorptance
  0.5;                                    !- Visible Absorptance

OS:Construction,
  {f6ab70f9-5448-4c23-849c-507f1d3c0f3a}, !- Handle
  ASHRAE 189.1-2009 ExtWall Mass ClimateZone 6, !- Name
  ,                                       !- Surface Rendering Name
  {a7d37c0d-7c5c-469e-9ca5-eddb01cbcfb4}, !- Layer 1
  {fc32f351-e3b1-481b-9480-b99e91548759}, !- Layer 2
  {02106013-7cfb-4bd5-94d0-6c7e7990e033}, !- Layer 3
  {92b7df65-fa0f-42e3-9cb9-9da41b2a826e}; !- Layer 4

OS:StandardsInformation:Construction,
  {a0b7644d-35ab-4891-9ae7-c8ae2aaa809d}, !- Handle
  {f6ab70f9-5448-4c23-849c-507f1d3c0f3a}, !- Construction Name
  ExteriorWall,                           !- Intended Surface Type
  Mass;                                   !- Standards Construction Type

OS:Material,
  {02106013-7cfb-4bd5-94d0-6c7e7990e033}, !- Handle
  Wall Insulation [42],                   !- Name
  MediumRough,                            !- Roughness
  0.0913999999999999,                     !- Thickness {m}
  0.0432,                                 !- Conductivity {W/m-K}
  91,                                     !- Density {kg/m3}
  836.999999999999,                       !- Specific Heat {J/kg-K}
  0.9,                                    !- Thermal Absorptance
  0.5,                                    !- Solar Absorptance
  0.5;                                    !- Visible Absorptance

OS:Construction,
  {3754e908-aeee-4ae8-b50e-92c3373b5137}, !- Handle
  ASHRAE 189.1-2009 ExtWall Mass ClimateZone 7-8, !- Name
  ,                                       !- Surface Rendering Name
  {a7d37c0d-7c5c-469e-9ca5-eddb01cbcfb4}, !- Layer 1
  {fc32f351-e3b1-481b-9480-b99e91548759}, !- Layer 2
  {2e009740-6611-47b7-b70c-b2028af4383d}, !- Layer 3
  {92b7df65-fa0f-42e3-9cb9-9da41b2a826e}; !- Layer 4

OS:StandardsInformation:Construction,
  {e8587706-74c0-4b86-aa49-92a790b8dac9}, !- Handle
  {3754e908-aeee-4ae8-b50e-92c3373b5137}, !- Construction Name
  ExteriorWall,                           !- Intended Surface Type
  Mass;                                   !- Standards Construction Type

OS:Material,
  {2e009740-6611-47b7-b70c-b2028af4383d}, !- Handle
  Wall Insulation [44],                   !- Name
  MediumRough,                            !- Roughness
  0.1104,                                 !- Thickness {m}
  0.0432,                                 !- Conductivity {W/m-K}
  91,                                     !- Density {kg/m3}
  836.999999999999,                       !- Specific Heat {J/kg-K}
  0.9,                                    !- Thermal Absorptance
  0.5,                                    !- Solar Absorptance
  0.5;                                    !- Visible Absorptance

OS:Construction,
  {f4efdb3f-af0a-4097-bca5-9e139c18ffab}, !- Handle
  ASHRAE 189.1-2009 ExtWall Mass ClimateZone alt-res 1, !- Name
  ,                                       !- Surface Rendering Name
  {a7d37c0d-7c5c-469e-9ca5-eddb01cbcfb4}, !- Layer 1
  {fc32f351-e3b1-481b-9480-b99e91548759}, !- Layer 2
  {0c37c4ae-e90e-4d95-b09c-785710cbf996}, !- Layer 3
  {92b7df65-fa0f-42e3-9cb9-9da41b2a826e}; !- Layer 4

OS:StandardsInformation:Construction,
  {be086ed7-4994-4791-9ac4-2d5f22810a40}, !- Handle
  {f4efdb3f-af0a-4097-bca5-9e139c18ffab}, !- Construction Name
  ExteriorWall,                           !- Intended Surface Type
  Mass;                                   !- Standards Construction Type

OS:Construction,
  {3ff650fb-209a-49ef-b138-8104c44776bc}, !- Handle
  ASHRAE 189.1-2009 ExtWall Mass ClimateZone alt-res 2, !- Name
  ,                                       !- Surface Rendering Name
  {a7d37c0d-7c5c-469e-9ca5-eddb01cbcfb4}, !- Layer 1
  {fc32f351-e3b1-481b-9480-b99e91548759}, !- Layer 2
  {9888afc1-ca3c-4ac4-adaa-5c8a1f9d397b}, !- Layer 3
  {92b7df65-fa0f-42e3-9cb9-9da41b2a826e}; !- Layer 4

OS:StandardsInformation:Construction,
  {3df46ac2-5a7a-4385-a584-6e189115167f}, !- Handle
  {3ff650fb-209a-49ef-b138-8104c44776bc}, !- Construction Name
  ExteriorWall,                           !- Intended Surface Type
  Mass;                                   !- Standards Construction Type

OS:Construction,
  {b7036fee-4849-48f4-84cb-48cb6157166c}, !- Handle
  ASHRAE 189.1-2009 ExtWall Mass ClimateZone alt-res 3, !- Name
  ,                                       !- Surface Rendering Name
  {a7d37c0d-7c5c-469e-9ca5-eddb01cbcfb4}, !- Layer 1
  {fc32f351-e3b1-481b-9480-b99e91548759}, !- Layer 2
  {f260fdbc-7e08-40b4-a4aa-7a10fabaa412}, !- Layer 3
  {92b7df65-fa0f-42e3-9cb9-9da41b2a826e}; !- Layer 4

OS:StandardsInformation:Construction,
  {69fd0b47-212d-46b5-99fd-051699108913}, !- Handle
  {b7036fee-4849-48f4-84cb-48cb6157166c}, !- Construction Name
  ExteriorWall,                           !- Intended Surface Type
  Mass;                                   !- Standards Construction Type

OS:Construction,
  {07ba5e3d-4c89-43b4-90bd-798ea698f80d}, !- Handle
  ASHRAE 189.1-2009 ExtWall Mass ClimateZone alt-res 4, !- Name
  ,                                       !- Surface Rendering Name
  {a7d37c0d-7c5c-469e-9ca5-eddb01cbcfb4}, !- Layer 1
  {fc32f351-e3b1-481b-9480-b99e91548759}, !- Layer 2
  {59002b99-f45d-45f6-a8e6-94d64d9894a8}, !- Layer 3
  {92b7df65-fa0f-42e3-9cb9-9da41b2a826e}; !- Layer 4

OS:StandardsInformation:Construction,
  {31b0c9cc-8040-4633-9779-68cb76f7071e}, !- Handle
  {07ba5e3d-4c89-43b4-90bd-798ea698f80d}, !- Construction Name
  ExteriorWall,                           !- Intended Surface Type
  Mass;                                   !- Standards Construction Type

OS:Construction,
  {de788f5a-321c-4346-9319-d94532e6deff}, !- Handle
  ASHRAE 189.1-2009 ExtWall Mass ClimateZone alt-res 5, !- Name
  ,                                       !- Surface Rendering Name
  {a7d37c0d-7c5c-469e-9ca5-eddb01cbcfb4}, !- Layer 1
  {fc32f351-e3b1-481b-9480-b99e91548759}, !- Layer 2
  {02106013-7cfb-4bd5-94d0-6c7e7990e033}, !- Layer 3
  {92b7df65-fa0f-42e3-9cb9-9da41b2a826e}; !- Layer 4

OS:StandardsInformation:Construction,
  {f03eb8ce-366b-49c8-a59b-b0786d8a7cde}, !- Handle
  {de788f5a-321c-4346-9319-d94532e6deff}, !- Construction Name
  ExteriorWall,                           !- Intended Surface Type
  Mass;                                   !- Standards Construction Type

OS:Construction,
  {77d57df1-1585-4fe9-bc68-7dd3a37e1db0}, !- Handle
  ASHRAE 189.1-2009 ExtWall Mass ClimateZone alt-res 6, !- Name
  ,                                       !- Surface Rendering Name
  {a7d37c0d-7c5c-469e-9ca5-eddb01cbcfb4}, !- Layer 1
  {fc32f351-e3b1-481b-9480-b99e91548759}, !- Layer 2
  {2e009740-6611-47b7-b70c-b2028af4383d}, !- Layer 3
  {92b7df65-fa0f-42e3-9cb9-9da41b2a826e}; !- Layer 4

OS:StandardsInformation:Construction,
  {8bd8d307-9942-4566-ad10-6418cf2471a0}, !- Handle
  {77d57df1-1585-4fe9-bc68-7dd3a37e1db0}, !- Construction Name
  ExteriorWall,                           !- Intended Surface Type
  Mass;                                   !- Standards Construction Type

OS:Construction,
  {8cc74953-c8ee-4352-8998-dfbf81391577}, !- Handle
  ASHRAE 189.1-2009 ExtWall Mass ClimateZone alt-res 7, !- Name
  ,                                       !- Surface Rendering Name
  {a7d37c0d-7c5c-469e-9ca5-eddb01cbcfb4}, !- Layer 1
  {fc32f351-e3b1-481b-9480-b99e91548759}, !- Layer 2
  {2e009740-6611-47b7-b70c-b2028af4383d}, !- Layer 3
  {92b7df65-fa0f-42e3-9cb9-9da41b2a826e}; !- Layer 4

OS:StandardsInformation:Construction,
  {ebd4730c-854f-4ec9-86ca-1fd800f1ca18}, !- Handle
  {8cc74953-c8ee-4352-8998-dfbf81391577}, !- Construction Name
  ExteriorWall,                           !- Intended Surface Type