
OS:Version,
  {280987cf-e18c-4cdd-9cfe-63a4112fbb85}, !- Handle
  2.3.0;                                  !- Version Identifier

OS:Construction,
  {3e6987d5-1ad1-426a-86de-dc5b44641cb2}, !- Handle
  ASHRAE 189.1-2009 AtticFloor ClimateZone 1-8, !- Name
  ,                                       !- Surface Rendering Name
  {9c48d863-f257-48dc-b67a-ec95e855721a}, !- Layer 1
  {c91f4633-2ea5-4bb2-99af-d86e9295ce1a}, !- Layer 2
  {9c48d863-f257-48dc-b67a-ec95e855721a}; !- Layer 3

OS:StandardsInformation:Construction,
  {ed260d61-a93c-4f5a-b5bb-d906b8e4809c}, !- Handle
  {3e6987d5-1ad1-426a-86de-dc5b44641cb2}, !- Construction Name
  AtticFloor,                             !- Intended Surface Type
  WoodFramed,                             !- Standards Construction Type
  ,                                       !- Perturbable Layer
  ,                                       !- Perturbable Layer Type
  ,                                       !- Other Perturbable Layer Type
  ASHRAE 189.1-2009;                      !- Construction Standard

OS:Material,
  {9c48d863-f257-48dc-b67a-ec95e855721a}, !- Handle
  1/2IN Gypsum,                           !- Name
  Smooth,                                 !- Roughness
  0.0127,                                 !- Thickness {m}
  0.16,                                   !- Conductivity {W/m-K}
  784.9,                                  !- Density {kg/m3}
  830.000000000001,                       !- Specific Heat {J/kg-K}
  0.9,                                    !- Thermal Absorptance
  0.4,                                    !- Solar Absorptance
  0.4;                                    !- Visible Absorptance

OS:StandardsInformation:Material,
  {e0928e81-2f3f-409b-99d4-92a4e06e343f}, !- Handle
  {9c48d863-f257-48dc-b67a-ec95e855721a}; !- Material Name

OS:Material,
  {c91f4633-2ea5-4bb2-99af-d86e9295ce1a}, !- Handle
  AtticFloor Insulation,                  !- Name
  MediumRough,                            !- Roughness
  0.2379,                                 !- Thickness {m}
  0.049,                                  !- Conductivity {W/m-K}
  265,                                    !- Density {kg/m3}
  836.800000000001,                       !- Specific Heat {J/kg-K}
  0.9,                                    !- Thermal Absorptance
  0.7,                                    !- Solar Absorptance
  0.7;                                    !- Visible Absorptance

OS:StandardsInformation:Material,
  {c3f1cc6b-0233-4a26-b7ba-79a1f157c34b}, !- Handle
  {c91f4633-2ea5-4bb2-99af-d86e9295ce1a}; !- Material Name

OS:Construction,
  {6468e90c-0503-40c2-a1cf-34a9129da244}, !- Handle
  ASHRAE 189.1-2009 ExtRoof IEAD ClimateZone 1, !- Name
  ,                                       !- Surface Rendering Name
  {f16e7474-4ba1-4e23-9f46-ed236e03d570}, !- Layer 1
  {3bdc389a-e18b-4bfd-b320-05ccda1fe319}, !- Layer 2
  {a5203e89-4e73-4575-ab7b-9e960696e85d}; !- Layer 3

OS:StandardsInformation:Construction,
  {2c4a811d-296d-4f6a-b7f7-fd672d0fe8bb}, !- Handle
  {6468e90c-0503-40c2-a1cf-34a9129da244}, !- Construction Name
  ExteriorRoof,                           !- Intended Surface Type
  IEAD,                                   !- Standards Construction Type
  ,                                       !- Perturbable Layer
  ,                                       !- Perturbable Layer Type
  ,                                       !- Other Perturbable Layer Type
  ASHRAE 189.1-2009;                      !- Construction Standard

OS:Material,
  {f16e7474-4ba1-4e23-9f46-ed236e03d570}, !- Handle
  Roof Membrane,                          !- Name
  VeryRough,                              !- Roughness
  0.0095,                                 !- Thickness {m}
  0.16,                                   !- Conductivity {W/m-K}
  1121.29,                                !- Density {kg/m3}
  1460,                                   !- Specific Heat {J/kg-K}
  0.9,                                    !- Thermal Absorptance
  0.7,                                    !- Solar Absorptance
  0.7;                                    !- Visible Absorptance

OS:StandardsInformation:Material,
  {727e0cfb-cfe2-49bc-8244-44cddbdd8b51}, !- Handle
  {f16e7474-4ba1-4e23-9f46-ed236e03d570}; !- Material Name

OS:Material,
  {3bdc389a-e18b-4bfd-b320-05ccda1fe319}, !- Handle
  Roof Insulation [18],                   !- Name
  MediumRough,                            !- Roughness
  0.1693,                                 !- Thickness {m}
  0.049,                                  !- Conductivity {W/m-K}
  265,                                    !- Density {kg/m3}
  836.800000000001,                       !- Specific Heat {J/kg-K}
  0.9,                                    !- Thermal Absorptance
  0.7,                                    !- Solar Absorptance
  0.7;                                    !- Visible Absorptance

OS:StandardsInformation:Material,
  {7e242a0a-6006-47cc-99bc-3d0f38e7880f}, !- Handle
  {3bdc389a-e18b-4bfd-b320-05ccda1fe319}; !- Material Name

OS:Material,
  {a5203e89-4e73-4575-ab7b-9e960696e85d}, !- Handle
  Metal Decking,                          !- Name
  MediumSmooth,                           !- Roughness
  0.0015,                                 !- Thickness {m}
  45.006,                                 !- Conductivity {W/m-K}
  7680,                                   !- Density {kg/m3}
  418.4,                                  !- Specific Heat {J/kg-K}
  0.9,                                    !- Thermal Absorptance
  0.6,                                    !- Solar Absorptance
  0.6;                                    !- Visible Absorptance

OS:StandardsInformation:Material,
  {b53bc03b-624d-40aa-8b29-e43e3b7c5de9}, !- Handle
  {a5203e89-4e73-4575-ab7b-9e960696e85d}; !- Material Name

OS:Construction,
  {06bd672c-9fd3-4c71-8709-c36632e003eb}, !- Handle
  ASHRAE 189.1-2009 ExtRoof IEAD ClimateZone 2-5, !- Name
  ,                                       !- Surface Rendering Name
  {f16e7474-4ba1-4e23-9f46-ed236e03d570}, !- Layer 1
  {0089130d-f273-4812-900c-d7f5e2c325cd}, !- Layer 2
  {a5203e89-4e73-4575-ab7b-9e960696e85d}; !- Layer 3

OS:StandardsInformation:Construction,
  {77d50e39-b8f2-4a8e-80f7-eea4a4a27529}, !- Handle
  {06bd672c-9fd3-4c71-8709-c36632e003eb}, !- Construction Name
  ExteriorRoof,                           !- Intended Surface Type
  IEAD,                                   !- Standards Construction Type
  ,                                       !- Perturbable Layer
  ,                                       !- Perturbable Layer Type
  ,                                       !- Other Perturbable Layer Type
  ASHRAE 189.1-2009;                      !- Construction Standard

OS:Material,
  {0089130d-f273-4812-900c-d7f5e2c325cd}, !- Handle
  Roof Insulation [21],                   !- Name
  MediumRough,                            !- Roughness
  0.2105,                                 !- Thickness {m}
  0.049,                                  !- Conductivity {W/m-K}
  265,                                    !- Density {kg/m3}
  836.800000000001,                       !- Specific Heat {J/kg-K}
  0.9,                                    !- Thermal Absorptance
  0.7,                                    !- Solar Absorptance
  0.7;                                    !- Visible Absorptance

OS:StandardsInformation:Material,
  {388df8da-2a32-4bd9-a804-00cc8675041e}, !- Handle
  {0089130d-f273-4812-900c-d7f5e2c325cd}; !- Material Name

OS:Construction,
  {f5ee1b0c-9be0-4daa-8617-cbe08d236387}, !- Handle
  ASHRAE 189.1-2009 ExtRoof IEAD ClimateZone 6, !- Name
  ,                                       !- Surface Rendering Name
  {f16e7474-4ba1-4e23-9f46-ed236e03d570}, !- Layer 1
  {569db755-abff-4096-b7ef-f0160573acf0}, !- Layer 2
  {a5203e89-4e73-4575-ab7b-9e960696e85d}; !- Layer 3

OS:StandardsInformation:Construction,
  {3a48a830-78b9-4b2f-ac4f-05db19ca1cf8}, !- Handle
  {f5ee1b0c-9be0-4daa-8617-cbe08d236387}, !- Construction Name
  ExteriorRoof,                           !- Intended Surface Type
  IEAD,                                   !- Standards Construction Type
  ,                                       !- Perturbable Layer
  ,                                       !- Perturbable Layer Type
  ,                                       !- Other Perturbable Layer Type
  ASHRAE 189.1-2009;                      !- Construction Standard

OS:Material,
  {569db755-abff-4096-b7ef-f0160573acf0}, !- Handle
  Roof Insulation [24],                   !- Name
  MediumRough,                            !- Roughness
  0.260100000000001,                      !- Thickness {m}
  0.049,                                  !- Conductivity {W/m-K}
  265,                                    !- Density {kg/m3}
  836.800000000001,                       !- Specific Heat {J/kg-K}
  0.9,                                    !- Thermal Absorptance
  0.7,                                    !- Solar Absorptance
  0.7;                                    !- Visible Absorptance

OS:StandardsInformation:Material,
  {21391be4-3af4-4588-bbed-12f56f1b1d32}, !- Handle
  {569db755-abff-4096-b7ef-f0160573acf0}; !- Material Name

OS:Construction,
  {658481b6-4f92-4162-b584-64bde7aec167}, !- Handle
  ASHRAE 189.1-2009 ExtRoof IEAD ClimateZone 7-8, !- Name
  ,                                       !- Surface Rendering Name
  {f16e7474-4ba1-4e23-9f46-ed236e03d570}, !- Layer 1
  {b713b4fe-0bd8-4344-9c25-7827c1f0b7ec}, !- Layer 2
  {a5203e89-4e73-4575-ab7b-9e960696e85d}; !- Layer 3

OS:StandardsInformation:Construction,
  {5cb6f6af-08f7-4b9c-869e-f834ce13e534}, !- Handle
  {658481b6-4f92-4162-b584-64bde7aec167}, !- Construction Name
  ExteriorRoof,                           !- Intended Surface Type
  IEAD,                                   !- Standards Construction Type
  ,                                       !- Perturbable Layer
  ,                                       !- Perturbable Layer Type
  ,                                       !- Other Perturbable Layer Type
  ASHRAE 189.1-2009;                      !- Construction Standard

OS:Material,
  {b713b4fe-0bd8-4344-9c25-7827c1f0b7ec}, !- Handle
  Roof Insulation [26],                   !- Name
  MediumRough,                            !- Roughness
  0.2941,                                 !- Thickness {m}
  0.049,                                  !- Conductivity {W/m-K}
  265,                                    !- Density {kg/m3}
  836.800000000001,                       !- Specific Heat {J/kg-K}
  0.9,                                    !- Thermal Absorptance
  0.7,                                    !- Solar Absorptance
  0.7;                                    !- Visible Absorptance

OS:StandardsInformation:Material,
  {8b84c35d-15b1-4bb8-930d-db1deeb084de}, !- Handle
  {b713b4fe-0bd8-4344-9c25-7827c1f0b7ec}; !- Material Name

OS:Construction,
  {753b3747-d5ac-4acb-93e1-2bab9ab6348d}, !- Handle
  ASHRAE 189.1-2009 ExtRoof Metal ClimateZone 1, !- Name
  ,                                       !- Surface Rendering Name
  {e83fdb9d-14da-4f6b-8275-48042f5106ab}, !- Layer 1
  {01ffd765-6c9d-4791-b40c-765b07c74375}, !- Layer 2
  {a5203e89-4e73-4575-ab7b-9e960696e85d}; !- Layer 3

OS:StandardsInformation:Construction,
  {b8d633a5-7146-41e6-948f-c757b9ce6fe4}, !- Handle
  {753b3747-d5ac-4acb-93e1-2bab9ab6348d}, !- Construction Name
  ExteriorRoof,                           !- Intended Surface Type
  Metal,                                  !- Standards Construction Type
  ,                                       !- Perturbable Layer
  ,                                       !- Perturbable Layer Type
  ,                                       !- Other Perturbable Layer Type
  ASHRAE 189.1-2009;                      !- Construction Standard

OS:Material,
  {e83fdb9d-14da-4f6b-8275-48042f5106ab}, !- Handle
  Metal Roofing,                          !- Name
  MediumSmooth,                           !- Roughness
  0.0015,                                 !- Thickness {m}
  45.006,                                 !- Conductivity {W/m-K}
  7680,                                   !- Density {kg/m3}
  418.4,                                  !- Specific Heat {J/kg-K}
  0.9,                                    !- Thermal Absorptance
  0.6,                                    !- Solar Absorptance
  0.6;                                    !- Visible Absorptance

OS:StandardsInformation:Material,
  {94487d62-0c6c-45a1-830b-b4e8e7ce0fa7}, !- Handle
  {e83fdb9d-14da-4f6b-8275-48042f5106ab}; !- Material Name

OS:Material,
  {01ffd765-6c9d-4791-b40c-765b07c74375}, !- Handle
  Roof Insulation [19],                   !- Name
  MediumRough,                            !- Roughness
  0.1868,                                 !- Thickness {m}
  0.049,                                  !- Conductivity {W/m-K}
  265,                                    !- Density {kg/m3}
  836.800000000001,                       !- Specific Heat {J/kg-K}
  0.9,                                    !- Thermal Absorptance
  0.7,                                    !- Solar Absorptance
  0.7;                                    !- Visible Absorptance

OS:StandardsInformation:Material,
  {031ad99d-fe86-43c2-ac9a-97451158a779}, !- Handle
  {01ffd765-6c9d-4791-b40c-765b07c74375}; !- Material Name

OS:Construction,
  {b1cd4e70-e5b9-45cb-8263-70d2d884d046}, !- Handle
  ASHRAE 189.1-2009 ExtRoof Metal ClimateZone 2-5, !- Name
  ,                                       !- Surface Rendering Name
  {e83fdb9d-14da-4f6b-8275-48042f5106ab}, !- Layer 1
  {b30bc264-0116-4c66-828e-ca126bbbbd85}, !- Layer 2
  {a5203e89-4e73-4575-ab7b-9e960696e85d}; !- Layer 3

OS:StandardsInformation:Construction,
  {5d3d5a10-8f7e-4d3f-be8e-e39897bf2790}, !- Handle
  {b1cd4e70-e5b9-45cb-8263-70d2d884d046}, !- Construction Name
  ExteriorRoof,                           !- Intended Surface Type
  Metal,                                  !- Standards Construction Type
  ,                                       !- Perturbable Layer
  ,                                       !- Perturbable Layer Type
  ,                                       !- Other Perturbable Layer Type
  ASHRAE 189.1-2009;                      !- Construction Standard

OS:Material,
  {b30bc264-0116-4c66-828e-ca126bbbbd85}, !- Handle
  Roof Insulation [22],                   !- Name
  MediumRough,                            !- Roughness
  0.2358,                                 !- Thickness {m}
  0.049,                                  !- Conductivity {W/m-K}
  265,                                    !- Density {kg/m3}
  836.800000000001,                       !- Specific Heat {J/kg-K}
  0.9,                                    !- Thermal Absorptance
  0.7,                                    !- Solar Absorptance
  0.7;                                    !- Visible Absorptance

OS:StandardsInformation:Material,
  {5bf43c8d-1b45-4de1-9a9e-b20b8e340f2d}, !- Handle
  {b30bc264-0116-4c66-828e-ca126bbbbd85}; !- Material Name

OS:Construction,
  {1f9d5b92-71da-4486-98df-f523a8ba6301}, !- Handle
  ASHRAE 189.1-2009 ExtRoof Metal ClimateZone 6, !- Name
  ,                                       !- Surface Rendering Name
  {e83fdb9d-14da-4f6b-8275-48042f5106ab}, !- Layer 1
  {e4bc312a-7d72-475a-bba7-b1f1188784f1}, !- Layer 2
  {a5203e89-4e73-4575-ab7b-9e960696e85d}; !- Layer 3

OS:StandardsInformation:Construction,
  {ba27d197-0ed5-4327-a17a-0cc68fe121bb}, !- Handle
  {1f9d5b92-71da-4486-98df-f523a8ba6301}, !- Construction Name
  ExteriorRoof,                           !- Intended Surface Type
  Metal,                                  !- Standards Construction Type
  ,                                       !- Perturbable Layer
  ,                                       !- Perturbable Layer Type
  ,                                       !- Other Perturbable Layer Type
  ASHRAE 189.1-2009;                      !- Construction Standard

OS:Material,
  {e4bc312a-7d72-475a-bba7-b1f1188784f1}, !- Handle
  Roof Insulation [25],                   !- Name
  MediumRough,                            !- Roughness
  0.263,                                  !- Thickness {m}
  0.049,                                  !- Conductivity {W/m-K}
  265,                                    !- Density {kg/m3}
  836.800000000001,                       !- Specific Heat {J/kg-K}
  0.9,                                    !- Thermal Absorptance
  0.7,                                    !- Solar Absorptance
  0.7;                                    !- Visible Absorptance

OS:StandardsInformation:Material,
  {9d230074-1d2d-4cb6-a164-0fc9622d736c}, !- Handle
  {e4bc312a-7d72-475a-bba7-b1f1188784f1}; !- Material Name

OS:Construction,
  {dfb6c16a-def1-41ef-9228-43b0e1db76c7}, !- Handle
  ASHRAE 189.1-2009 ExtRoof Metal ClimateZone 7-8, !- Name
  ,                                       !- Surface Rendering Name
  {e83fdb9d-14da-4f6b-8275-48042f5106ab}, !- Layer 1
  {cfea2266-1bfd-4e62-800a-2deee7cbda64}, !- Layer 2
  {a5203e89-4e73-4575-ab7b-9e960696e85d}; !- Layer 3

OS:StandardsInformation:Construction,
  {c3417eef-79d8-4619-b527-2e051086eb3a}, !- Handle
  {dfb6c16a-def1-41ef-9228-43b0e1db76c7}, !- Construction Name
  ExteriorRoof,                           !- Intended Surface Type
  Metal,                                  !- Standards Construction Type
  ,                                       !- Perturbable Layer
  ,                                       !- Perturbable Layer Type
  ,                                       !- Other Perturbable Layer Type
  ASHRAE 189.1-2009;                      !- Construction Standard

OS:Material,
  {cfea2266-1bfd-4e62-800a-2deee7cbda64}, !- Handle
  Roof Insulation [27],                   !- Name
  MediumRough,                            !- Roughness
  0.297000000000001,                      !- Thickness {m}
  0.049,                                  !- Conductivity {W/m-K}
  265,                                    !- Density {kg/m3}
  836.800000000001,                       !- Specific Heat {J/kg-K}
  0.9,                                    !- Thermal Absorptance
  0.7,                                    !- Solar Absorptance
  0.7;                                    !- Visible Absorptance

OS:StandardsInformation:Material,
  {2ba237c9-a7a8-4e6d-873e-ab8f7f58b3ac}, !- Handle
  {cfea2266-1bfd-4e62-800a-2deee7cbda64}; !- Material Name

OS:Construction,
  {6e43cf4a-8670-40fd-9afb-e91bab7b2b24}, !- Handle
  ASHRAE 189.1-2009 ExtWall Mass ClimateZone 1, !- Name
  ,                                       !- Surface Rendering Name
  {06897160-3506-4806-96f4-2edbb1e94c16}, !- Layer 1
  {e2a3f2ec-7819-45ef-af4c-d268c0b93030}, !- Layer 2
  {22040ba9-af6f-4f3e-8b86-162e0fc646ab}, !- Layer 3
  {9c48d863-f257-48dc-b67a-ec95e855721a}; !- Layer 4

OS:StandardsInformation:Construction,
  {1fa8cc77-b74c-472e-a4f5-079dc4d44eeb}, !- Handle
  {6e43cf4a-8670-40fd-9afb-e91bab7b2b24}, !- Construction Name
  ExteriorWall,                           !- Intended Surface Type
  Mass,                                   !- Standards Construction Type
  ,                                       !- Perturbable Layer
  ,                                       !- Perturbable Layer Type
  ,                                       !- Other Perturbable Layer Type
  ASHRAE 189.1-2009;                      !- Construction Standard

OS:Material,
  {06897160-3506-4806-96f4-2edbb1e94c16}, !- Handle
  1IN Stucco,                             !- Name
  Smooth,                                 !- Roughness
  0.0253,                                 !- Thickness {m}
  0.691799999999999,                      !- Conductivity {W/m-K}
  1858,                                   !- Density {kg/m3}
  836.999999999999,                       !- Specific Heat {J/kg-K}
  0.9,                                    !- Thermal Absorptance
  0.92,                                   !- Solar Absorptance
  0.92;                                   !- Visible Absorptance

OS:StandardsInformation:Material,
  {25339b34-aaa8-470b-9310-fc6cdcb7fa7e}, !- Handle
  {06897160-3506-4806-96f4-2edbb1e94c16}; !- Material Name

OS:Material,
  {e2a3f2ec-7819-45ef-af4c-d268c0b93030}, !- Handle
  8IN Concrete HW,                        !- Name
  MediumRough,                            !- Roughness
  0.2033,                                 !- Thickness {m}
  1.72959999999999,                       !- Conductivity {W/m-K}
  2242.99999999999,                       !- Density {kg/m3}
  836.999999999999,                       !- Specific Heat {J/kg-K}
  0.9,                                    !- Thermal Absorptance
  0.65,                                   !- Solar Absorptance
  0.65;                                   !- Visible Absorptance

OS:StandardsInformation:Material,
  {efe3e71e-40a2-415a-87e9-c0c6be44b287}, !- Handle
  {e2a3f2ec-7819-45ef-af4c-d268c0b93030}; !- Material Name

OS:Material,
  {22040ba9-af6f-4f3e-8b86-162e0fc646ab}, !- Handle
  Wall Insulation [31],                   !- Name
  MediumRough,                            !- Roughness
  0.0337000000000001,                     !- Thickness {m}
  0.0432,                                 !- Conductivity {W/m-K}
  91,                                     !- Density {kg/m3}
  836.999999999999,                       !- Specific Heat {J/kg-K}
  0.9,                                    !- Thermal Absorptance
  0.5,                                    !- Solar Absorptance
  0.5;                                    !- Visible Absorptance

OS:StandardsInformation:Material,
  {0e74efaf-51f2-4337-9e41-ce225f453400}, !- Handle
  {22040ba9-af6f-4f3e-8b86-162e0fc646ab}; !- Material Name

OS:Construction,
  {c41eef83-929d-47d0-88e5-5bfefa79d383}, !- Handle
  ASHRAE 189.1-2009 ExtWall Mass ClimateZone 2, !- Name
  ,                                       !- Surface Rendering Name
  {06897160-3506-4806-96f4-2edbb1e94c16}, !- Layer 1
  {e2a3f2ec-7819-45ef-af4c-d268c0b93030}, !- Layer 2
  {301cd8c6-4d2b-4670-94ab-41c14fd021e9}, !- Layer 3
  {9c48d863-f257-48dc-b67a-ec95e855721a}; !- Layer 4

OS:StandardsInformation:Construction,
  {53f0d253-3eeb-41a1-9b3b-9f3dfd2163de}, !- Handle
  {c41eef83-929d-47d0-88e5-5bfefa79d383}, !- Construction Name
  ExteriorWall,                           !- Intended Surface Type
  Mass,                                   !- Standards Construction Type
  ,                                       !- Perturbable Layer
  ,                                       !- Perturbable Layer Type
  ,                                       !- Other Perturbable Layer Type
  ASHRAE 189.1-2009;                      !- Construction Standard

OS:Material,
  {301cd8c6-4d2b-4670-94ab-41c14fd021e9}, !- Handle
  Wall Insulation [35],                   !- Name
  MediumRough,                            !- Roughness
  0.0452,                                 !- Thickness {m}
  0.0432,                                 !- Conductivity {W/m-K}
  91,                                     !- Density {kg/m3}
  836.999999999999,                       !- Specific Heat {J/kg-K}
  0.9,                                    !- Thermal Absorptance
  0.5,                                    !- Solar Absorptance
  0.5;                                    !- Visible Absorptance

OS:StandardsInformation:Material,
  {acb5a683-e374-491f-94d6-3ce88ea107b5}, !- Handle
  {301cd8c6-4d2b-4670-94ab-41c14fd021e9}; !- Material Name

OS:Construction,
  {77e6c1f4-8922-4001-b778-021949aada04}, !- Handle
  ASHRAE 189.1-2009 ExtWall Mass ClimateZone 3, !- Name
  ,                                       !- Surface Rendering Name
  {06897160-3506-4806-96f4-2edbb1e94c16}, !- Layer 1
  {e2a3f2ec-7819-45ef-af4c-d268c0b93030}, !- Layer 2
  {1a51a73d-9aa2-4fe0-bdab-25f52871c574}, !- Layer 3
  {9c48d863-f257-48dc-b67a-ec95e855721a}; !- Layer 4

OS:StandardsInformation:Construction,
  {a79780a2-188e-44bf-b4f1-ceba3a449c7c}, !- Handle
  {77e6c1f4-8922-4001-b778-021949aada04}, !- Construction Name
  ExteriorWall,                           !- Intended Surface Type
  Mass,                                   !- Standards Construction Type
  ,                                       !- Perturbable Layer
  ,                                       !- Perturbable Layer Type
  ,                                       !- Other Perturbable Layer Type
  ASHRAE 189.1-2009;                      !- Construction Standard

OS:Material,
  {1a51a73d-9aa2-4fe0-bdab-25f52871c574}, !- Handle
  Wall Insulation [36],                   !- Name
  MediumRough,                            !- Roughness
  0.0565999999999999,                     !- Thickness {m}
  0.0432,                                 !- Conductivity {W/m-K}
  91,                                     !- Density {kg/m3}
  836.999999999999,                       !- Specific Heat {J/kg-K}
  0.9,                                    !- Thermal Absorptance
  0.5,                                    !- Solar Absorptance
  0.5;                                    !- Visible Absorptance

OS:StandardsInformation:Material,
  {72e76679-3245-4dd0-b93b-37b7f9c11733}, !- Handle
  {1a51a73d-9aa2-4fe0-bdab-25f52871c574}; !- Material Name

OS:Construction,
  {b28ddf4f-7981-49cf-acb3-1710dd982dab}, !- Handle
  ASHRAE 189.1-2009 ExtWall Mass ClimateZone 4, !- Name
  ,                                       !- Surface Rendering Name
  {06897160-3506-4806-96f4-2edbb1e94c16}, !- Layer 1
  {e2a3f2ec-7819-45ef-af4c-d268c0b93030}, !- Layer 2
  {3ce48038-75bc-4f02-878f-fc0e21d2654b}, !- Layer 3
  {9c48d863-f257-48dc-b67a-ec95e855721a}; !- Layer 4

OS:StandardsInformation:Construction,
  {e5bb7a5d-b302-4620-8af7-232e9ef39beb}, !- Handle
  {b28ddf4f-7981-49cf-acb3-1710dd982dab}, !- Construction Name
  ExteriorWall,                           !- Intended Surface Type
  Mass,                                   !- Standards Construction Type
  ,                                       !- Perturbable Layer
  ,                                       !- Perturbable Layer Type
  ,                                       !- Other Perturbable Layer Type
  ASHRAE 189.1-2009;                      !- Construction Standard

OS:Material,
  {3ce48038-75bc-4f02-878f-fc0e21d2654b}, !- Handle
  Wall Insulation [37],                   !- Name
  MediumRough,                            !- Roughness
  0.0680999999999999,                     !- Thickness {m}
  0.0432,                                 !- Conductivity {W/m-K}
  91,                                     !- Density {kg/m3}
  836.999999999999,                       !- Specific Heat {J/kg-K}
  0.9,                                    !- Thermal Absorptance
  0.5,                                    !- Solar Absorptance
  0.5;                                    !- Visible Absorptance

OS:StandardsInformation:Material,
  {7f57d198-04d6-406a-a15d-e5304f7a9bdf}, !- Handle
  {3ce48038-75bc-4f02-878f-fc0e21d2654b}; !- Material Name

OS:Construction,
  {82bcd394-5f35-4176-bfeb-e42c4059f506}, !- Handle
  ASHRAE 189.1-2009 ExtWall Mass ClimateZone 5, !- Name
  ,                                       !- Surface Rendering Name
  {06897160-3506-4806-96f4-2edbb1e94c16}, !- Layer 1
  {e2a3f2ec-7819-45ef-af4c-d268c0b93030}, !- Layer 2
  {c0a7a265-009c-4e54-97a4-11682a9338a8}, !- Layer 3
  {9c48d863-f257-48dc-b67a-ec95e855721a}; !- Layer 4

OS:StandardsInformation:Construction,
  {f20381bb-339c-49d0-89c9-2b9af4f68ede}, !- Handle
  {82bcd394-5f35-4176-bfeb-e42c4059f506}, !- Construction Name
  ExteriorWall,                           !- Intended Surface Type
  Mass,                                   !- Standards Construction Type
  ,                                       !- Perturbable Layer
  ,                                       !- Perturbable Layer Type
  ,                                       !- Other Perturbable Layer Type
  ASHRAE 189.1-2009;                      !- Construction Standard

OS:Material,
  {c0a7a265-009c-4e54-97a4-11682a9338a8}, !- Handle
  Wall Insulation [40],                   !- Name
  MediumRough,                            !- Roughness
  0.0793999999999999,                     !- Thickness {m}
  0.0432,                                 !- Conductivity {W/m-K}
  91,                                     !- Density {kg/m3}
  836.999999999999,                       !- Specific Heat {J/kg-K}
  0.9,                                    !- Thermal Absorptance
  0.5,                                    !- Solar Absorptance
  0.5;                                    !- Visible Absorptance

OS:StandardsInformation:Material,
  {3b72bf89-3931-444f-8842-4ec5de4a0cf9}, !- Handle
  {c0a7a265-009c-4e54-97a4-11682a9338a8}; !- Material Name

OS:Construction,
  {60baee73-8157-40dd-a191-d66d7cd39526}, !- Handle
  ASHRAE 189.1-2009 ExtWall Mass ClimateZone 6, !- Name
  ,                                       !- Surface Rendering Name
  {06897160-3506-4806-96f4-2edbb1e94c16}, !- Layer 1
  {e2a3f2ec-7819-45ef-af4c-d268c0b93030}, !- Layer 2
  {5f5d821f-efc1-4e43-9c92-df5a44554221}, !- Layer 3
  {9c48d863-f257-48dc-b67a-ec95e855721a}; !- Layer 4

OS:StandardsInformation:Construction,
  {575afa74-8e59-48ec-8f1e-5d7bbb1afe36}, !- Handle
  {60baee73-8157-40dd-a191-d66d7cd39526}, !- Construction Name
  ExteriorWall,                           !- Intended Surface Type
  Mass,                                   !- Standards Construction Type
  ,                                       !- Perturbable Layer
  ,                                       !- Perturbable Layer Type
  ,                                       !- Other Perturbable Layer Type
  ASHRAE 189.1-2009;                      !- Construction Standard

OS:Material,
  {5f5d821f-efc1-4e43-9c92-df5a44554221}, !- Handle
  Wall Insulation [42],                   !- Name
  MediumRough,                            !- Roughness
  0.0913999999999999,                     !- Thickness {m}
  0.0432,                                 !- Conductivity {W/m-K}
  91,                                     !- Density {kg/m3}
  836.999999999999,                       !- Specific Heat {J/kg-K}