
OS:Version,
  {8d0cc7cc-0d37-44b0-943e-f904b4369a04}, !- Handle
  1.5.0;                                  !- Version Identifier

OS:Construction,
  {a0380bbc-eced-4825-8374-ae2250d158a7}, !- Handle
  ASHRAE 189.1-2009 AtticFloor ClimateZone 1-8, !- Name
  ,                                       !- Surface Rendering Name
  {0a0d4e12-d0f8-408d-80c8-75c2d00e5dfc}, !- Layer 1
  {00973ab8-bfcc-40fa-9795-760232e2c377}, !- Layer 2
  {0a0d4e12-d0f8-408d-80c8-75c2d00e5dfc}; !- Layer 3

OS:StandardsInformation:Construction,
  {3f5a5cad-4402-443a-9a6b-2aa075c55b88}, !- Handle
  {a0380bbc-eced-4825-8374-ae2250d158a7}, !- Construction Name
  AtticFloor,                             !- Intended Surface Type
  WoodFramed;                             !- Standards Construction Type

OS:Material,
  {0a0d4e12-d0f8-408d-80c8-75c2d00e5dfc}, !- Handle
  1/2IN Gypsum,                           !- Name
  Smooth,                                 !- Roughness
  0.0127,                                 !- Thickness {m}
  0.16,                                   !- Conductivity {W/m-K}
  784.9,                                  !- Density {kg/m3}
  830.000000000001,                       !- Specific Heat {J/kg-K}
  0.9,                                    !- Thermal Absorptance
  0.4,                                    !- Solar Absorptance
  0.4;                                    !- Visible Absorptance

OS:Material,
  {00973ab8-bfcc-40fa-9795-760232e2c377}, !- Handle
  AtticFloor Insulation,                  !- Name
  MediumRough,                            !- Roughness
  0.2379,                                 !- Thickness {m}
  0.049,                                  !- Conductivity {W/m-K}
  265,                                    !- Density {kg/m3}
  836.800000000001,                       !- Specific Heat {J/kg-K}
  0.9,                                    !- Thermal Absorptance
  0.7,                                    !- Solar Absorptance
  0.7;                                    !- Visible Absorptance

OS:Construction,
  {2a78793d-f6f3-4c16-bcdb-ad43a0dfdde9}, !- Handle
  ASHRAE 189.1-2009 ExtRoof IEAD ClimateZone 1, !- Name
  ,                                       !- Surface Rendering Name
  {b96358b0-a44e-468f-b57d-6d0464403e74}, !- Layer 1
  {96026c30-c692-4a92-ace1-93db55c40c63}, !- Layer 2
  {7b80abf1-c1ee-45db-a6b4-2d8cd3d43001}; !- Layer 3

OS:StandardsInformation:Construction,
  {db0b8824-4a3f-4cab-b61a-7caea1f8016f}, !- Handle
  {2a78793d-f6f3-4c16-bcdb-ad43a0dfdde9}, !- Construction Name
  ExteriorRoof,                           !- Intended Surface Type
  IEAD;                                   !- Standards Construction Type

OS:Material,
  {b96358b0-a44e-468f-b57d-6d0464403e74}, !- Handle
  Roof Membrane,                          !- Name
  VeryRough,                              !- Roughness
  0.0095,                                 !- Thickness {m}
  0.16,                                   !- Conductivity {W/m-K}
  1121.29,                                !- Density {kg/m3}
  1460,                                   !- Specific Heat {J/kg-K}
  0.9,                                    !- Thermal Absorptance
  0.7,                                    !- Solar Absorptance
  0.7;                                    !- Visible Absorptance

OS:Material,
  {96026c30-c692-4a92-ace1-93db55c40c63}, !- Handle
  Roof Insulation [18],                   !- Name
  MediumRough,                            !- Roughness
  0.1693,                                 !- Thickness {m}
  0.049,                                  !- Conductivity {W/m-K}
  265,                                    !- Density {kg/m3}
  836.800000000001,                       !- Specific Heat {J/kg-K}
  0.9,                                    !- Thermal Absorptance
  0.7,                                    !- Solar Absorptance
  0.7;                                    !- Visible Absorptance

OS:Material,
  {7b80abf1-c1ee-45db-a6b4-2d8cd3d43001}, !- Handle
  Metal Decking,                          !- Name
  MediumSmooth,                           !- Roughness
  0.0015,                                 !- Thickness {m}
  45.006,                                 !- Conductivity {W/m-K}
  7680,                                   !- Density {kg/m3}
  418.4,                                  !- Specific Heat {J/kg-K}
  0.9,                                    !- Thermal Absorptance
  0.6,                                    !- Solar Absorptance
  0.6;                                    !- Visible Absorptance

OS:Construction,
  {dbfff8b9-bebd-493a-9a56-4798ea3bcd09}, !- Handle
  ASHRAE 189.1-2009 ExtRoof IEAD ClimateZone 2-5, !- Name
  ,                                       !- Surface Rendering Name
  {b96358b0-a44e-468f-b57d-6d0464403e74}, !- Layer 1
  {2b50b3a4-98b0-4bc5-b27a-0f2dd62e023f}, !- Layer 2
  {7b80abf1-c1ee-45db-a6b4-2d8cd3d43001}; !- Layer 3

OS:StandardsInformation:Construction,
  {ce8ba558-0650-4d47-8440-1a4b3b4b9e08}, !- Handle
  {dbfff8b9-bebd-493a-9a56-4798ea3bcd09}, !- Construction Name
  ExteriorRoof,                           !- Intended Surface Type
  IEAD;                                   !- Standards Construction Type

OS:Material,
  {2b50b3a4-98b0-4bc5-b27a-0f2dd62e023f}, !- Handle
  Roof Insulation [21],                   !- Name
  MediumRough,                            !- Roughness
  0.2105,                                 !- Thickness {m}
  0.049,                                  !- Conductivity {W/m-K}
  265,                                    !- Density {kg/m3}
  836.800000000001,                       !- Specific Heat {J/kg-K}
  0.9,                                    !- Thermal Absorptance
  0.7,                                    !- Solar Absorptance
  0.7;                                    !- Visible Absorptance

OS:Construction,
  {f1370aa2-d5e0-411b-839e-1e7699704846}, !- Handle
  ASHRAE 189.1-2009 ExtRoof IEAD ClimateZone 6, !- Name
  ,                                       !- Surface Rendering Name
  {b96358b0-a44e-468f-b57d-6d0464403e74}, !- Layer 1
  {deb29dfe-3a9c-487d-87ae-8ad1553ed87b}, !- Layer 2
  {7b80abf1-c1ee-45db-a6b4-2d8cd3d43001}; !- Layer 3

OS:StandardsInformation:Construction,
  {db705999-53d8-4a06-841a-2c2154ce9260}, !- Handle
  {f1370aa2-d5e0-411b-839e-1e7699704846}, !- Construction Name
  ExteriorRoof,                           !- Intended Surface Type
  IEAD;                                   !- Standards Construction Type

OS:Material,
  {deb29dfe-3a9c-487d-87ae-8ad1553ed87b}, !- Handle
  Roof Insulation [24],                   !- Name
  MediumRough,                            !- Roughness
  0.260100000000001,                      !- Thickness {m}
  0.049,                                  !- Conductivity {W/m-K}
  265,                                    !- Density {kg/m3}
  836.800000000001,                       !- Specific Heat {J/kg-K}
  0.9,                                    !- Thermal Absorptance
  0.7,                                    !- Solar Absorptance
  0.7;                                    !- Visible Absorptance

OS:Construction,
  {05647bb2-207b-4090-931a-1763802bd885}, !- Handle
  ASHRAE 189.1-2009 ExtRoof IEAD ClimateZone 7-8, !- Name
  ,                                       !- Surface Rendering Name
  {b96358b0-a44e-468f-b57d-6d0464403e74}, !- Layer 1
  {9c5cf2fb-076c-4f81-ae15-282a4c35b733}, !- Layer 2
  {7b80abf1-c1ee-45db-a6b4-2d8cd3d43001}; !- Layer 3

OS:StandardsInformation:Construction,
  {93242333-e5b8-4256-9172-8e568eb300e3}, !- Handle
  {05647bb2-207b-4090-931a-1763802bd885}, !- Construction Name
  ExteriorRoof,                           !- Intended Surface Type
  IEAD;                                   !- Standards Construction Type

OS:Material,
  {9c5cf2fb-076c-4f81-ae15-282a4c35b733}, !- Handle
  Roof Insulation [26],                   !- Name
  MediumRough,                            !- Roughness
  0.2941,                                 !- Thickness {m}
  0.049,                                  !- Conductivity {W/m-K}
  265,                                    !- Density {kg/m3}
  836.800000000001,                       !- Specific Heat {J/kg-K}
  0.9,                                    !- Thermal Absorptance
  0.7,                                    !- Solar Absorptance
  0.7;                                    !- Visible Absorptance

OS:Construction,
  {16014a3e-8412-4755-88f2-e502cfbf8108}, !- Handle
  ASHRAE 189.1-2009 ExtRoof Metal ClimateZone 1, !- Name
  ,                                       !- Surface Rendering Name
  {c29e9dfa-cb15-4377-8def-8533402f8f0d}, !- Layer 1
  {e59fd9c8-9a68-47ea-bf0d-6be532555f47}, !- Layer 2
  {7b80abf1-c1ee-45db-a6b4-2d8cd3d43001}; !- Layer 3

OS:StandardsInformation:Construction,
  {28127659-873d-41a4-9f02-43f74755b86a}, !- Handle
  {16014a3e-8412-4755-88f2-e502cfbf8108}, !- Construction Name
  ExteriorRoof,                           !- Intended Surface Type
  Metal;                                  !- Standards Construction Type

OS:Material,
  {c29e9dfa-cb15-4377-8def-8533402f8f0d}, !- Handle
  Metal Roofing,                          !- Name
  MediumSmooth,                           !- Roughness
  0.0015,                                 !- Thickness {m}
  45.006,                                 !- Conductivity {W/m-K}
  7680,                                   !- Density {kg/m3}
  418.4,                                  !- Specific Heat {J/kg-K}
  0.9,                                    !- Thermal Absorptance
  0.6,                                    !- Solar Absorptance
  0.6;                                    !- Visible Absorptance

OS:Material,
  {e59fd9c8-9a68-47ea-bf0d-6be532555f47}, !- Handle
  Roof Insulation [19],                   !- Name
  MediumRough,                            !- Roughness
  0.1868,                                 !- Thickness {m}
  0.049,                                  !- Conductivity {W/m-K}
  265,                                    !- Density {kg/m3}
  836.800000000001,                       !- Specific Heat {J/kg-K}
  0.9,                                    !- Thermal Absorptance
  0.7,                                    !- Solar Absorptance
  0.7;                                    !- Visible Absorptance

OS:Construction,
  {c617d821-acd3-4d2b-b9b5-b0e66f0c9912}, !- Handle
  ASHRAE 189.1-2009 ExtRoof Metal ClimateZone 2-5, !- Name
  ,                                       !- Surface Rendering Name
  {c29e9dfa-cb15-4377-8def-8533402f8f0d}, !- Layer 1
  {29a56dfa-1c18-4b57-86c5-275ecad38ad0}, !- Layer 2
  {7b80abf1-c1ee-45db-a6b4-2d8cd3d43001}; !- Layer 3

OS:StandardsInformation:Construction,
  {c0b14203-9617-438a-8291-a152a170e462}, !- Handle
  {c617d821-acd3-4d2b-b9b5-b0e66f0c9912}, !- Construction Name
  ExteriorRoof,                           !- Intended Surface Type
  Metal;                                  !- Standards Construction Type

OS:Material,
  {29a56dfa-1c18-4b57-86c5-275ecad38ad0}, !- Handle
  Roof Insulation [22],                   !- Name
  MediumRough,                            !- Roughness
  0.2358,                                 !- Thickness {m}
  0.049,                                  !- Conductivity {W/m-K}
  265,                                    !- Density {kg/m3}
  836.800000000001,                       !- Specific Heat {J/kg-K}
  0.9,                                    !- Thermal Absorptance
  0.7,                                    !- Solar Absorptance
  0.7;                                    !- Visible Absorptance

OS:Construction,
  {bdf595c9-3b99-4d23-a192-ef5fc8d72361}, !- Handle
  ASHRAE 189.1-2009 ExtRoof Metal ClimateZone 6, !- Name
  ,                                       !- Surface Rendering Name
  {c29e9dfa-cb15-4377-8def-8533402f8f0d}, !- Layer 1
  {5a7bc242-9338-426b-a326-95771fe4b271}, !- Layer 2
  {7b80abf1-c1ee-45db-a6b4-2d8cd3d43001}; !- Layer 3

OS:StandardsInformation:Construction,
  {a484c03a-3cd5-44bc-89c2-6f02ad5ad8d0}, !- Handle
  {bdf595c9-3b99-4d23-a192-ef5fc8d72361}, !- Construction Name
  ExteriorRoof,                           !- Intended Surface Type
  Metal;                                  !- Standards Construction Type

OS:Material,
  {5a7bc242-9338-426b-a326-95771fe4b271}, !- Handle
  Roof Insulation [25],                   !- Name
  MediumRough,                            !- Roughness
  0.263,                                  !- Thickness {m}
  0.049,                                  !- Conductivity {W/m-K}
  265,                                    !- Density {kg/m3}
  836.800000000001,                       !- Specific Heat {J/kg-K}
  0.9,                                    !- Thermal Absorptance
  0.7,                                    !- Solar Absorptance
  0.7;                                    !- Visible Absorptance

OS:Construction,
  {2f6d20f8-dd36-4e7c-9ef2-bb40f3230e9c}, !- Handle
  ASHRAE 189.1-2009 ExtRoof Metal ClimateZone 7-8, !- Name
  ,                                       !- Surface Rendering Name
  {c29e9dfa-cb15-4377-8def-8533402f8f0d}, !- Layer 1
  {5cd3223d-c235-4f95-90c4-953e65691eb7}, !- Layer 2
  {7b80abf1-c1ee-45db-a6b4-2d8cd3d43001}; !- Layer 3

OS:StandardsInformation:Construction,
  {1065aafd-45c7-424c-95e5-31c0624da92d}, !- Handle
  {2f6d20f8-dd36-4e7c-9ef2-bb40f3230e9c}, !- Construction Name
  ExteriorRoof,                           !- Intended Surface Type
  Metal;                                  !- Standards Construction Type

OS:Material,
  {5cd3223d-c235-4f95-90c4-953e65691eb7}, !- Handle
  Roof Insulation [27],                   !- Name
  MediumRough,                            !- Roughness
  0.297000000000001,                      !- Thickness {m}
  0.049,                                  !- Conductivity {W/m-K}
  265,                                    !- Density {kg/m3}
  836.800000000001,                       !- Specific Heat {J/kg-K}
  0.9,                                    !- Thermal Absorptance
  0.7,                                    !- Solar Absorptance
  0.7;                                    !- Visible Absorptance

OS:Construction,
  {72c3753f-46ad-4f4b-b517-67f3675204a8}, !- Handle
  ASHRAE 189.1-2009 ExtWall Mass ClimateZone 1, !- Name
  ,                                       !- Surface Rendering Name
  {3217808e-5bd3-4019-90fe-62c223ee5f7f}, !- Layer 1
  {dc45253e-c35a-4891-9d61-b94378300c44}, !- Layer 2
  {3bfed7be-c9ae-4cc2-8a9f-d9ec84cebae5}, !- Layer 3
  {0a0d4e12-d0f8-408d-80c8-75c2d00e5dfc}; !- Layer 4

OS:StandardsInformation:Construction,
  {414ddab5-cd48-495b-9528-88afa5bbdfd3}, !- Handle
  {72c3753f-46ad-4f4b-b517-67f3675204a8}, !- Construction Name
  ExteriorWall,                           !- Intended Surface Type
  Mass;                                   !- Standards Construction Type

OS:Material,
  {3217808e-5bd3-4019-90fe-62c223ee5f7f}, !- Handle
  1IN Stucco,                             !- Name
  Smooth,                                 !- Roughness
  0.0253,                                 !- Thickness {m}
  0.691799999999999,                      !- Conductivity {W/m-K}
  1858,                                   !- Density {kg/m3}
  836.999999999999,                       !- Specific Heat {J/kg-K}
  0.9,                                    !- Thermal Absorptance
  0.92,                                   !- Solar Absorptance
  0.92;                                   !- Visible Absorptance

OS:Material,
  {dc45253e-c35a-4891-9d61-b94378300c44}, !- Handle
  8IN Concrete HW,                        !- Name
  MediumRough,                            !- Roughness
  0.2033,                                 !- Thickness {m}
  1.72959999999999,                       !- Conductivity {W/m-K}
  2242.99999999999,                       !- Density {kg/m3}
  836.999999999999,                       !- Specific Heat {J/kg-K}
  0.9,                                    !- Thermal Absorptance
  0.65,                                   !- Solar Absorptance
  0.65;                                   !- Visible Absorptance

OS:Material,
  {3bfed7be-c9ae-4cc2-8a9f-d9ec84cebae5}, !- Handle
  Wall Insulation [31],                   !- Name
  MediumRough,                            !- Roughness
  0.0337000000000001,                     !- Thickness {m}
  0.0432,                                 !- Conductivity {W/m-K}
  91,                                     !- Density {kg/m3}
  836.999999999999,                       !- Specific Heat {J/kg-K}
  0.9,                                    !- Thermal Absorptance
  0.5,                                    !- Solar Absorptance
  0.5;                                    !- Visible Absorptance

OS:Construction,
  {758fa83b-9c47-4d26-bcbc-8492fdde9d91}, !- Handle
  ASHRAE 189.1-2009 ExtWall Mass ClimateZone 2, !- Name
  ,                                       !- Surface Rendering Name
  {3217808e-5bd3-4019-90fe-62c223ee5f7f}, !- Layer 1
  {dc45253e-c35a-4891-9d61-b94378300c44}, !- Layer 2
  {03e8cea1-928d-406e-a190-7e54337a71fe}, !- Layer 3
  {0a0d4e12-d0f8-408d-80c8-75c2d00e5dfc}; !- Layer 4

OS:StandardsInformation:Construction,
  {7efaae7c-0cee-49cc-8098-f0810bf34fc7}, !- Handle
  {758fa83b-9c47-4d26-bcbc-8492fdde9d91}, !- Construction Name
  ExteriorWall,                           !- Intended Surface Type
  Mass;                                   !- Standards Construction Type

OS:Material,
  {03e8cea1-928d-406e-a190-7e54337a71fe}, !- Handle
  Wall Insulation [35],                   !- Name
  MediumRough,                            !- Roughness
  0.0452,                                 !- Thickness {m}
  0.0432,                                 !- Conductivity {W/m-K}
  91,                                     !- Density {kg/m3}
  836.999999999999,                       !- Specific Heat {J/kg-K}
  0.9,                                    !- Thermal Absorptance
  0.5,                                    !- Solar Absorptance
  0.5;                                    !- Visible Absorptance

OS:Construction,
  {610c8050-0e44-46c4-8c6e-d30623ed1476}, !- Handle
  ASHRAE 189.1-2009 ExtWall Mass ClimateZone 3, !- Name
  ,                                       !- Surface Rendering Name
  {3217808e-5bd3-4019-90fe-62c223ee5f7f}, !- Layer 1
  {dc45253e-c35a-4891-9d61-b94378300c44}, !- Layer 2
  {ad13b91e-aa58-45df-b487-d4c5c92385a5}, !- Layer 3
  {0a0d4e12-d0f8-408d-80c8-75c2d00e5dfc}; !- Layer 4

OS:StandardsInformation:Construction,
  {7b99962c-0e47-4541-ae40-8c7e1438b7d1}, !- Handle
  {610c8050-0e44-46c4-8c6e-d30623ed1476}, !- Construction Name
  ExteriorWall,                           !- Intended Surface Type
  Mass;                                   !- Standards Construction Type

OS:Material,
  {ad13b91e-aa58-45df-b487-d4c5c92385a5}, !- Handle
  Wall Insulation [36],                   !- Name
  MediumRough,                            !- Roughness
  0.0565999999999999,                     !- Thickness {m}
  0.0432,                                 !- Conductivity {W/m-K}
  91,                                     !- Density {kg/m3}
  836.999999999999,                       !- Specific Heat {J/kg-K}
  0.9,                                    !- Thermal Absorptance
  0.5,                                    !- Solar Absorptance
  0.5;                                    !- Visible Absorptance

OS:Construction,
  {2ca40472-1173-4463-a833-1fd249f7b919}, !- Handle
  ASHRAE 189.1-2009 ExtWall Mass ClimateZone 4, !- Name
  ,                                       !- Surface Rendering Name
  {3217808e-5bd3-4019-90fe-62c223ee5f7f}, !- Layer 1
  {dc45253e-c35a-4891-9d61-b94378300c44}, !- Layer 2
  {aa20df31-eba8-40b9-bd1f-3760189fad66}, !- Layer 3
  {0a0d4e12-d0f8-408d-80c8-75c2d00e5dfc}; !- Layer 4

OS:StandardsInformation:Construction,
  {61dd8457-ca3b-4f9f-b5dd-66d589d1ace9}, !- Handle
  {2ca40472-1173-4463-a833-1fd249f7b919}, !- Construction Name
  ExteriorWall,                           !- Intended Surface Type
  Mass;                                   !- Standards Construction Type

OS:Material,
  {aa20df31-eba8-40b9-bd1f-3760189fad66}, !- Handle
  Wall Insulation [37],                   !- Name
  MediumRough,                            !- Roughness
  0.0680999999999999,                     !- Thickness {m}
  0.0432,                                 !- Conductivity {W/m-K}
  91,                                     !- Density {kg/m3}
  836.999999999999,                       !- Specific Heat {J/kg-K}
  0.9,                                    !- Thermal Absorptance
  0.5,                                    !- Solar Absorptance
  0.5;                                    !- Visible Absorptance

OS:Construction,
  {e302c0b9-aac9-46d6-b609-db919b700267}, !- Handle
  ASHRAE 189.1-2009 ExtWall Mass ClimateZone 5, !- Name
  ,                                       !- Surface Rendering Name
  {3217808e-5bd3-4019-90fe-62c223ee5f7f}, !- Layer 1
  {dc45253e-c35a-4891-9d61-b94378300c44}, !- Layer 2
  {3f01325e-ccb1-4165-a89d-829f6a327c1e}, !- Layer 3
  {0a0d4e12-d0f8-408d-80c8-75c2d00e5dfc}; !- Layer 4

OS:StandardsInformation:Construction,
  {e5c2e21e-2814-4f60-9d9d-f10204f5881d}, !- Handle
  {e302c0b9-aac9-46d6-b609-db919b700267}, !- Construction Name
  ExteriorWall,                           !- Intended Surface Type
  Mass;                                   !- Standards Construction Type

OS:Material,
  {3f01325e-ccb1-4165-a89d-829f6a327c1e}, !- Handle
  Wall Insulation [40],                   !- Name
  MediumRough,                            !- Roughness
  0.0793999999999999,                     !- Thickness {m}
  0.0432,                                 !- Conductivity {W/m-K}
  91,                                     !- Density {kg/m3}
  836.999999999999,                       !- Specific Heat {J/kg-K}
  0.9,                                    !- Thermal Absorptance
  0.5,                                    !- Solar Absorptance
  0.5;                                    !- Visible Absorptance

OS:Construction,
  {cf51cce5-b79e-4aa7-905d-cd726bff56b4}, !- Handle
  ASHRAE 189.1-2009 ExtWall Mass ClimateZone 6, !- Name
  ,                                       !- Surface Rendering Name
  {3217808e-5bd3-4019-90fe-62c223ee5f7f}, !- Layer 1
  {dc45253e-c35a-4891-9d61-b94378300c44}, !- Layer 2
  {e1d1913e-44f1-4d5c-a7e0-2c1e91638ee2}, !- Layer 3
  {0a0d4e12-d0f8-408d-80c8-75c2d00e5dfc}; !- Layer 4

OS:StandardsInformation:Construction,
  {72dc7a8d-d37c-440c-b8d3-f4450b9314e7}, !- Handle
  {cf51cce5-b79e-4aa7-905d-cd726bff56b4}, !- Construction Name
  ExteriorWall,                           !- Intended Surface Type
  Mass;                                   !- Standards Construction Type

OS:Material,
  {e1d1913e-44f1-4d5c-a7e0-2c1e91638ee2}, !- Handle
  Wall Insulation [42],                   !- Name
  MediumRough,                            !- Roughness
  0.0913999999999999,                     !- Thickness {m}
  0.0432,                                 !- Conductivity {W/m-K}
  91,                                     !- Density {kg/m3}
  836.999999999999,                       !- Specific Heat {J/kg-K}
  0.9,                                    !- Thermal Absorptance
  0.5,                                    !- Solar Absorptance
  0.5;                                    !- Visible Absorptance

OS:Construction,
  {7c1873a9-8641-4d90-9317-6f1118fdf020}, !- Handle
  ASHRAE 189.1-2009 ExtWall Mass ClimateZone 7-8, !- Name
  ,                                       !- Surface Rendering Name
  {3217808e-5bd3-4019-90fe-62c223ee5f7f}, !- Layer 1
  {dc45253e-c35a-4891-9d61-b94378300c44}, !- Layer 2
  {55ead00d-f866-4a0a-872e-37bfab3db42b}, !- Layer 3
  {0a0d4e12-d0f8-408d-80c8-75c2d00e5dfc}; !- Layer 4

OS:StandardsInformation:Construction,
  {c8b55e33-8ba8-4d31-aee0-7add9042579b}, !- Handle
  {7c1873a9-8641-4d90-9317-6f1118fdf020}, !- Construction Name
  ExteriorWall,                           !- Intended Surface Type
  Mass;                                   !- Standards Construction Type

OS:Material,
  {55ead00d-f866-4a0a-872e-37bfab3db42b}, !- Handle
  Wall Insulation [44],                   !- Name
  MediumRough,                            !- Roughness
  0.1104,                                 !- Thickness {m}
  0.0432,                                 !- Conductivity {W/m-K}
  91,                                     !- Density {kg/m3}
  836.999999999999,                       !- Specific Heat {J/kg-K}
  0.9,                                    !- Thermal Absorptance
  0.5,                                    !- Solar Absorptance
  0.5;                                    !- Visible Absorptance

OS:Construction,
  {fc3f8fc3-34d4-4dae-b11c-7094d79fe14f}, !- Handle
  ASHRAE 189.1-2009 ExtWall Mass ClimateZone alt-res 1, !- Name
  ,                                       !- Surface Rendering Name
  {3217808e-5bd3-4019-90fe-62c223ee5f7f}, !- Layer 1
  {dc45253e-c35a-4891-9d61-b94378300c44}, !- Layer 2
  {03e8cea1-928d-406e-a190-7e54337a71fe}, !- Layer 3
  {0a0d4e12-d0f8-408d-80c8-75c2d00e5dfc}; !- Layer 4

OS:StandardsInformation:Construction,
  {8f9e38c3-ee35-44ba-a3e2-226c9511bb88}, !- Handle
  {fc3f8fc3-34d4-4dae-b11c-7094d79fe14f}, !- Construction Name
  ExteriorWall,                           !- Intended Surface Type
  Mass;                                   !- Standards Construction Type

OS:Construction,
  {3b0092a9-a0c4-4cfc-bd9f-9a74c239fd31}, !- Handle
  ASHRAE 189.1-2009 ExtWall Mass ClimateZone alt-res 2, !- Name
  ,                                       !- Surface Rendering Name
  {3217808e-5bd3-4019-90fe-62c223ee5f7f}, !- Layer 1
  {dc45253e-c35a-4891-9d61-b94378300c44}, !- Layer 2
  {ad13b91e-aa58-45df-b487-d4c5c92385a5}, !- Layer 3
  {0a0d4e12-d0f8-408d-80c8-75c2d00e5dfc}; !- Layer 4

OS:StandardsInformation:Construction,
  {bf06f01a-74cb-4685-a788-e82dfa11edfa}, !- Handle
  {3b0092a9-a0c4-4cfc-bd9f-9a74c239fd31}, !- Construction Name
  ExteriorWall,                           !- Intended Surface Type
  Mass;                                   !- Standards Construction Type

OS:Construction,
  {951189b3-6fa9-4e48-b961-f6007a954e50}, !- Handle
  ASHRAE 189.1-2009 ExtWall Mass ClimateZone alt-res 3, !- Name
  ,                                       !- Surface Rendering Name
  {3217808e-5bd3-4019-90fe-62c223ee5f7f}, !- Layer 1
  {dc45253e-c35a-4891-9d61-b94378300c44}, !- Layer 2
  {aa20df31-eba8-40b9-bd1f-3760189fad66}, !- Layer 3
  {0a0d4e12-d0f8-408d-80c8-75c2d00e5dfc}; !- Layer 4

OS:StandardsInformation:Construction,
  {22832003-f831-4f10-bb6e-c36709c65a6e}, !- Handle
  {951189b3-6fa9-4e48-b961-f6007a954e50}, !- Construction Name
  ExteriorWall,                           !- Intended Surface Type
  Mass;                                   !- Standards Construction Type

OS:Construction,
  {f8da78fd-3f2b-4417-afdd-d5646e106a87}, !- Handle
  ASHRAE 189.1-2009 ExtWall Mass ClimateZone alt-res 4, !- Name
  ,                                       !- Surface Rendering Name
  {3217808e-5bd3-4019-90fe-62c223ee5f7f}, !- Layer 1
  {dc45253e-c35a-4891-9d61-b94378300c44}, !- Layer 2
  {3f01325e-ccb1-4165-a89d-829f6a327c1e}, !- Layer 3
  {0a0d4e12-d0f8-408d-80c8-75c2d00e5dfc}; !- Layer 4

OS:StandardsInformation:Construction,
  {cff4596f-3a54-4802-a7f8-d3c2da56e72d}, !- Handle
  {f8da78fd-3f2b-4417-afdd-d5646e106a87}, !- Construction Name
  ExteriorWall,                           !- Intended Surface Type
  Mass;                                   !- Standards Construction Type

OS:Construction,
  {f0edee7d-9510-4dfb-8e71-9bb91f3856c8}, !- Handle
  ASHRAE 189.1-2009 ExtWall Mass ClimateZone alt-res 5, !- Name
  ,                                       !- Surface Rendering Name
  {3217808e-5bd3-4019-90fe-62c223ee5f7f}, !- Layer 1
  {dc45253e-c35a-4891-9d61-b94378300c44}, !- Layer 2
  {e1d1913e-44f1-4d5c-a7e0-2c1e91638ee2}, !- Layer 3
  {0a0d4e12-d0f8-408d-80c8-75c2d00e5dfc}; !- Layer 4

OS:StandardsInformation:Construction,
  {c013bb22-b0c8-4c70-ba15-26d5519736f1}, !- Handle
  {f0edee7d-9510-4dfb-8e71-9bb91f3856c8}, !- Construction Name
  ExteriorWall,                           !- Intended Surface Type
  Mass;                                   !- Standards Construction Type

OS:Construction,
  {988fb1e7-2200-4e2d-8702-7b92238c7e89}, !- Handle
  ASHRAE 189.1-2009 ExtWall Mass ClimateZone alt-res 6, !- Name
  ,                                       !- Surface Rendering Name
  {3217808e-5bd3-4019-90fe-62c223ee5f7f}, !- Layer 1
  {dc45253e-c35a-4891-9d61-b94378300c44}, !- Layer 2
  {55ead00d-f866-4a0a-872e-37bfab3db42b}, !- Layer 3
  {0a0d4e12-d0f8-408d-80c8-75c2d00e5dfc}; !- Layer 4

OS:StandardsInformation:Construction,
  {4db6a3fd-9523-4d6d-9d07-b2201c6bf20f}, !- Handle
  {988fb1e7-2200-4e2d-8702-7b92238c7e89}, !- Construction Name
  ExteriorWall,                           !- Intended Surface Type
  Mass;                                   !- Standards Construction Type

OS:Construction,
  {5eb44525-36cc-4978-b4ff-fe9851463b3b}, !- Handle
  ASHRAE 189.1-2009 ExtWall Mass ClimateZone alt-res 7, !- Name
  ,                                       !- Surface Rendering Name
  {3217808e-5bd3-4019-90fe-62c223ee5f7f}, !- Layer 1
  {dc45253e-c35a-4891-9d61-b94378300c44}, !- Layer 2
  {55ead00d-f866-4a0a-872e-37bfab3db42b}, !- Layer 3
  {0a0d4e12-d0f8-408d-80c8-75c2d00e5dfc}; !- Layer 4

OS:StandardsInformation:Construction,
  {d584a01a-4d18-42d5-95e9-3a06cc9c1b9a}, !- Handle
  {5eb44525-36cc-4978-b4ff-fe9851463b3b}, !- Construction Name
  ExteriorWall,                           !- Intended Surface Type