
OS:Version,
  {b0e7276b-343a-4238-8538-eefc5d6d1e3b}, !- Handle
  1.3.3;                                  !- Version Identifier

OS:Construction,
  {9621da6a-340e-497b-9a02-931cb0398403}, !- Handle
  ASHRAE 189.1-2009 AtticFloor ClimateZone 1-8, !- Name
  ,                                       !- Surface Rendering Name
  {3ee13ebf-c39b-47fd-9f60-697700f271fe}, !- Layer 1
  {4fb540dc-d016-49da-acfc-611f23b18917}, !- Layer 2
  {3ee13ebf-c39b-47fd-9f60-697700f271fe}; !- Layer 3

OS:StandardsInformation:Construction,
  {b0abdd9c-aebd-4373-a118-33104e67d10d}, !- Handle
  {9621da6a-340e-497b-9a02-931cb0398403}, !- Construction Name
  AtticFloor,                             !- Intended Surface Type
  WoodFramed;                             !- Standards Construction Type

OS:Material,
  {3ee13ebf-c39b-47fd-9f60-697700f271fe}, !- Handle
  1/2IN Gypsum,                           !- Name
  Smooth,                                 !- Roughness
  0.0127,                                 !- Thickness {m}
  0.16,                                   !- Conductivity {W/m-K}
  784.9,                                  !- Density {kg/m3}
  830.000000000001,                       !- Specific Heat {J/kg-K}
  0.9,                                    !- Thermal Absorptance
  0.4,                                    !- Solar Absorptance
  0.4;                                    !- Visible Absorptance

OS:Material,
  {4fb540dc-d016-49da-acfc-611f23b18917}, !- Handle
  AtticFloor Insulation,                  !- Name
  MediumRough,                            !- Roughness
  0.2379,                                 !- Thickness {m}
  0.049,                                  !- Conductivity {W/m-K}
  265,                                    !- Density {kg/m3}
  836.800000000001,                       !- Specific Heat {J/kg-K}
  0.9,                                    !- Thermal Absorptance
  0.7,                                    !- Solar Absorptance
  0.7;                                    !- Visible Absorptance

OS:Construction,
  {8ea09d99-e380-44bd-beef-36990720c99d}, !- Handle
  ASHRAE 189.1-2009 ExtRoof IEAD ClimateZone 1, !- Name
  ,                                       !- Surface Rendering Name
  {da0255e2-5d9c-4fe3-80de-16d085589a45}, !- Layer 1
  {691ede7c-f334-4944-8cd7-b6570f019ccc}, !- Layer 2
  {43989496-8953-4bce-bba0-757cface5a8c}; !- Layer 3

OS:StandardsInformation:Construction,
  {49a4f795-249d-4fce-be06-0f32d760325c}, !- Handle
  {8ea09d99-e380-44bd-beef-36990720c99d}, !- Construction Name
  ExteriorRoof,                           !- Intended Surface Type
  IEAD;                                   !- Standards Construction Type

OS:Material,
  {da0255e2-5d9c-4fe3-80de-16d085589a45}, !- Handle
  Roof Membrane,                          !- Name
  VeryRough,                              !- Roughness
  0.0095,                                 !- Thickness {m}
  0.16,                                   !- Conductivity {W/m-K}
  1121.29,                                !- Density {kg/m3}
  1460,                                   !- Specific Heat {J/kg-K}
  0.9,                                    !- Thermal Absorptance
  0.7,                                    !- Solar Absorptance
  0.7;                                    !- Visible Absorptance

OS:Material,
  {691ede7c-f334-4944-8cd7-b6570f019ccc}, !- Handle
  Roof Insulation [18],                   !- Name
  MediumRough,                            !- Roughness
  0.1693,                                 !- Thickness {m}
  0.049,                                  !- Conductivity {W/m-K}
  265,                                    !- Density {kg/m3}
  836.800000000001,                       !- Specific Heat {J/kg-K}
  0.9,                                    !- Thermal Absorptance
  0.7,                                    !- Solar Absorptance
  0.7;                                    !- Visible Absorptance

OS:Material,
  {43989496-8953-4bce-bba0-757cface5a8c}, !- Handle
  Metal Decking,                          !- Name
  MediumSmooth,                           !- Roughness
  0.0015,                                 !- Thickness {m}
  45.006,                                 !- Conductivity {W/m-K}
  7680,                                   !- Density {kg/m3}
  418.4,                                  !- Specific Heat {J/kg-K}
  0.9,                                    !- Thermal Absorptance
  0.6,                                    !- Solar Absorptance
  0.6;                                    !- Visible Absorptance

OS:Construction,
  {ca9a1356-a3a1-43a2-82a3-3ed85f576da3}, !- Handle
  ASHRAE 189.1-2009 ExtRoof IEAD ClimateZone 2-5, !- Name
  ,                                       !- Surface Rendering Name
  {da0255e2-5d9c-4fe3-80de-16d085589a45}, !- Layer 1
  {7d4b6246-b3ae-43ca-9eab-35a4244f323c}, !- Layer 2
  {43989496-8953-4bce-bba0-757cface5a8c}; !- Layer 3

OS:StandardsInformation:Construction,
  {17c592a1-3fc4-4d21-9f27-77837533d0a1}, !- Handle
  {ca9a1356-a3a1-43a2-82a3-3ed85f576da3}, !- Construction Name
  ExteriorRoof,                           !- Intended Surface Type
  IEAD;                                   !- Standards Construction Type

OS:Material,
  {7d4b6246-b3ae-43ca-9eab-35a4244f323c}, !- Handle
  Roof Insulation [21],                   !- Name
  MediumRough,                            !- Roughness
  0.2105,                                 !- Thickness {m}
  0.049,                                  !- Conductivity {W/m-K}
  265,                                    !- Density {kg/m3}
  836.800000000001,                       !- Specific Heat {J/kg-K}
  0.9,                                    !- Thermal Absorptance
  0.7,                                    !- Solar Absorptance
  0.7;                                    !- Visible Absorptance

OS:Construction,
  {77668e84-bdc7-4b4a-81ec-81b9324821ba}, !- Handle
  ASHRAE 189.1-2009 ExtRoof IEAD ClimateZone 6, !- Name
  ,                                       !- Surface Rendering Name
  {da0255e2-5d9c-4fe3-80de-16d085589a45}, !- Layer 1
  {47394b20-1dd2-49d5-b499-c3bd48ffd126}, !- Layer 2
  {43989496-8953-4bce-bba0-757cface5a8c}; !- Layer 3

OS:StandardsInformation:Construction,
  {2abb9680-48f7-4b21-ad86-98a952765bab}, !- Handle
  {77668e84-bdc7-4b4a-81ec-81b9324821ba}, !- Construction Name
  ExteriorRoof,                           !- Intended Surface Type
  IEAD;                                   !- Standards Construction Type

OS:Material,
  {47394b20-1dd2-49d5-b499-c3bd48ffd126}, !- Handle
  Roof Insulation [24],                   !- Name
  MediumRough,                            !- Roughness
  0.260100000000001,                      !- Thickness {m}
  0.049,                                  !- Conductivity {W/m-K}
  265,                                    !- Density {kg/m3}
  836.800000000001,                       !- Specific Heat {J/kg-K}
  0.9,                                    !- Thermal Absorptance
  0.7,                                    !- Solar Absorptance
  0.7;                                    !- Visible Absorptance

OS:Construction,
  {d925121f-de0b-46e9-acd2-c25e5d3b4463}, !- Handle
  ASHRAE 189.1-2009 ExtRoof IEAD ClimateZone 7-8, !- Name
  ,                                       !- Surface Rendering Name
  {da0255e2-5d9c-4fe3-80de-16d085589a45}, !- Layer 1
  {c99aa020-ea70-4feb-ac2c-39d3b706b292}, !- Layer 2
  {43989496-8953-4bce-bba0-757cface5a8c}; !- Layer 3

OS:StandardsInformation:Construction,
  {c64f5ed4-4415-4c08-a509-397c76d94c32}, !- Handle
  {d925121f-de0b-46e9-acd2-c25e5d3b4463}, !- Construction Name
  ExteriorRoof,                           !- Intended Surface Type
  IEAD;                                   !- Standards Construction Type

OS:Material,
  {c99aa020-ea70-4feb-ac2c-39d3b706b292}, !- Handle
  Roof Insulation [26],                   !- Name
  MediumRough,                            !- Roughness
  0.2941,                                 !- Thickness {m}
  0.049,                                  !- Conductivity {W/m-K}
  265,                                    !- Density {kg/m3}
  836.800000000001,                       !- Specific Heat {J/kg-K}
  0.9,                                    !- Thermal Absorptance
  0.7,                                    !- Solar Absorptance
  0.7;                                    !- Visible Absorptance

OS:Construction,
  {de16752d-4dba-4acf-947b-9e014e7739a4}, !- Handle
  ASHRAE 189.1-2009 ExtRoof Metal ClimateZone 1, !- Name
  ,                                       !- Surface Rendering Name
  {7f0fe906-0e90-46e1-91ba-162e520b119d}, !- Layer 1
  {9975c3e7-caa2-4ad5-8315-79470fec7a10}, !- Layer 2
  {43989496-8953-4bce-bba0-757cface5a8c}; !- Layer 3

OS:StandardsInformation:Construction,
  {a9f72126-c7a0-4138-ad4f-123456a97b96}, !- Handle
  {de16752d-4dba-4acf-947b-9e014e7739a4}, !- Construction Name
  ExteriorRoof,                           !- Intended Surface Type
  Metal;                                  !- Standards Construction Type

OS:Material,
  {7f0fe906-0e90-46e1-91ba-162e520b119d}, !- Handle
  Metal Roofing,                          !- Name
  MediumSmooth,                           !- Roughness
  0.0015,                                 !- Thickness {m}
  45.006,                                 !- Conductivity {W/m-K}
  7680,                                   !- Density {kg/m3}
  418.4,                                  !- Specific Heat {J/kg-K}
  0.9,                                    !- Thermal Absorptance
  0.6,                                    !- Solar Absorptance
  0.6;                                    !- Visible Absorptance

OS:Material,
  {9975c3e7-caa2-4ad5-8315-79470fec7a10}, !- Handle
  Roof Insulation [19],                   !- Name
  MediumRough,                            !- Roughness
  0.1868,                                 !- Thickness {m}
  0.049,                                  !- Conductivity {W/m-K}
  265,                                    !- Density {kg/m3}
  836.800000000001,                       !- Specific Heat {J/kg-K}
  0.9,                                    !- Thermal Absorptance
  0.7,                                    !- Solar Absorptance
  0.7;                                    !- Visible Absorptance

OS:Construction,
  {4f2ddcc7-4b41-4f4d-97b6-28696bdfa9c6}, !- Handle
  ASHRAE 189.1-2009 ExtRoof Metal ClimateZone 2-5, !- Name
  ,                                       !- Surface Rendering Name
  {7f0fe906-0e90-46e1-91ba-162e520b119d}, !- Layer 1
  {26f7024e-6b73-415e-9cb2-a3c416380e92}, !- Layer 2
  {43989496-8953-4bce-bba0-757cface5a8c}; !- Layer 3

OS:StandardsInformation:Construction,
  {bb05f575-af07-4a24-92e8-6702a7edd842}, !- Handle
  {4f2ddcc7-4b41-4f4d-97b6-28696bdfa9c6}, !- Construction Name
  ExteriorRoof,                           !- Intended Surface Type
  Metal;                                  !- Standards Construction Type

OS:Material,
  {26f7024e-6b73-415e-9cb2-a3c416380e92}, !- Handle
  Roof Insulation [22],                   !- Name
  MediumRough,                            !- Roughness
  0.2358,                                 !- Thickness {m}
  0.049,                                  !- Conductivity {W/m-K}
  265,                                    !- Density {kg/m3}
  836.800000000001,                       !- Specific Heat {J/kg-K}
  0.9,                                    !- Thermal Absorptance
  0.7,                                    !- Solar Absorptance
  0.7;                                    !- Visible Absorptance

OS:Construction,
  {1741bee2-164b-478e-80c1-5d37c239e26a}, !- Handle
  ASHRAE 189.1-2009 ExtRoof Metal ClimateZone 6, !- Name
  ,                                       !- Surface Rendering Name
  {7f0fe906-0e90-46e1-91ba-162e520b119d}, !- Layer 1
  {da2c8bf6-cc3e-457b-b4f4-379859449b2e}, !- Layer 2
  {43989496-8953-4bce-bba0-757cface5a8c}; !- Layer 3

OS:StandardsInformation:Construction,
  {2400d80a-02a0-43fb-a8f5-d7a48f26dcdd}, !- Handle
  {1741bee2-164b-478e-80c1-5d37c239e26a}, !- Construction Name
  ExteriorRoof,                           !- Intended Surface Type
  Metal;                                  !- Standards Construction Type

OS:Material,
  {da2c8bf6-cc3e-457b-b4f4-379859449b2e}, !- Handle
  Roof Insulation [25],                   !- Name
  MediumRough,                            !- Roughness
  0.263,                                  !- Thickness {m}
  0.049,                                  !- Conductivity {W/m-K}
  265,                                    !- Density {kg/m3}
  836.800000000001,                       !- Specific Heat {J/kg-K}
  0.9,                                    !- Thermal Absorptance
  0.7,                                    !- Solar Absorptance
  0.7;                                    !- Visible Absorptance

OS:Construction,
  {88528bc5-913e-46df-9c1f-1ba243f1d965}, !- Handle
  ASHRAE 189.1-2009 ExtRoof Metal ClimateZone 7-8, !- Name
  ,                                       !- Surface Rendering Name
  {7f0fe906-0e90-46e1-91ba-162e520b119d}, !- Layer 1
  {e4d4bcce-06d1-479b-831e-4415bdaceae5}, !- Layer 2
  {43989496-8953-4bce-bba0-757cface5a8c}; !- Layer 3

OS:StandardsInformation:Construction,
  {0010795a-91c3-4891-a7c0-825dda0c2986}, !- Handle
  {88528bc5-913e-46df-9c1f-1ba243f1d965}, !- Construction Name
  ExteriorRoof,                           !- Intended Surface Type
  Metal;                                  !- Standards Construction Type

OS:Material,
  {e4d4bcce-06d1-479b-831e-4415bdaceae5}, !- Handle
  Roof Insulation [27],                   !- Name
  MediumRough,                            !- Roughness
  0.297000000000001,                      !- Thickness {m}
  0.049,                                  !- Conductivity {W/m-K}
  265,                                    !- Density {kg/m3}
  836.800000000001,                       !- Specific Heat {J/kg-K}
  0.9,                                    !- Thermal Absorptance
  0.7,                                    !- Solar Absorptance
  0.7;                                    !- Visible Absorptance

OS:Construction,
  {afd5fcfb-e4f3-4fa1-8110-58c43b969a19}, !- Handle
  ASHRAE 189.1-2009 ExtWall Mass ClimateZone 1, !- Name
  ,                                       !- Surface Rendering Name
  {111fe57e-0e72-4b0c-b4d2-60ec7b7bc03d}, !- Layer 1
  {6f00b7a3-3d1d-4367-b5c4-ffbbbb90d2da}, !- Layer 2
  {91b89cb5-f199-4531-ad43-12d1d7e05227}, !- Layer 3
  {3ee13ebf-c39b-47fd-9f60-697700f271fe}; !- Layer 4

OS:StandardsInformation:Construction,
  {3f8fafea-dd21-4f8a-a395-ceb2172b8ff0}, !- Handle
  {afd5fcfb-e4f3-4fa1-8110-58c43b969a19}, !- Construction Name
  ExteriorWall,                           !- Intended Surface Type
  Mass;                                   !- Standards Construction Type

OS:Material,
  {111fe57e-0e72-4b0c-b4d2-60ec7b7bc03d}, !- Handle
  1IN Stucco,                             !- Name
  Smooth,                                 !- Roughness
  0.0253,                                 !- Thickness {m}
  0.691799999999999,                      !- Conductivity {W/m-K}
  1858,                                   !- Density {kg/m3}
  836.999999999999,                       !- Specific Heat {J/kg-K}
  0.9,                                    !- Thermal Absorptance
  0.92,                                   !- Solar Absorptance
  0.92;                                   !- Visible Absorptance

OS:Material,
  {6f00b7a3-3d1d-4367-b5c4-ffbbbb90d2da}, !- Handle
  8IN Concrete HW,                        !- Name
  MediumRough,                            !- Roughness
  0.2033,                                 !- Thickness {m}
  1.72959999999999,                       !- Conductivity {W/m-K}
  2242.99999999999,                       !- Density {kg/m3}
  836.999999999999,                       !- Specific Heat {J/kg-K}
  0.9,                                    !- Thermal Absorptance
  0.65,                                   !- Solar Absorptance
  0.65;                                   !- Visible Absorptance

OS:Material,
  {91b89cb5-f199-4531-ad43-12d1d7e05227}, !- Handle
  Wall Insulation [31],                   !- Name
  MediumRough,                            !- Roughness
  0.0337000000000001,                     !- Thickness {m}
  0.0432,                                 !- Conductivity {W/m-K}
  91,                                     !- Density {kg/m3}
  836.999999999999,                       !- Specific Heat {J/kg-K}
  0.9,                                    !- Thermal Absorptance
  0.5,                                    !- Solar Absorptance
  0.5;                                    !- Visible Absorptance

OS:Construction,
  {44855196-30bc-44f2-8f4a-75ed1e8475cb}, !- Handle
  ASHRAE 189.1-2009 ExtWall Mass ClimateZone 2, !- Name
  ,                                       !- Surface Rendering Name
  {111fe57e-0e72-4b0c-b4d2-60ec7b7bc03d}, !- Layer 1
  {6f00b7a3-3d1d-4367-b5c4-ffbbbb90d2da}, !- Layer 2
  {77bb61d8-518d-4552-a674-57af67ef2432}, !- Layer 3
  {3ee13ebf-c39b-47fd-9f60-697700f271fe}; !- Layer 4

OS:StandardsInformation:Construction,
  {d2149fef-b15b-4de4-9a49-fc9a946091e8}, !- Handle
  {44855196-30bc-44f2-8f4a-75ed1e8475cb}, !- Construction Name
  ExteriorWall,                           !- Intended Surface Type
  Mass;                                   !- Standards Construction Type

OS:Material,
  {77bb61d8-518d-4552-a674-57af67ef2432}, !- Handle
  Wall Insulation [35],                   !- Name
  MediumRough,                            !- Roughness
  0.0452,                                 !- Thickness {m}
  0.0432,                                 !- Conductivity {W/m-K}
  91,                                     !- Density {kg/m3}
  836.999999999999,                       !- Specific Heat {J/kg-K}
  0.9,                                    !- Thermal Absorptance
  0.5,                                    !- Solar Absorptance
  0.5;                                    !- Visible Absorptance

OS:Construction,
  {7cf19092-a50f-4c15-922f-4ba7724b967a}, !- Handle
  ASHRAE 189.1-2009 ExtWall Mass ClimateZone 3, !- Name
  ,                                       !- Surface Rendering Name
  {111fe57e-0e72-4b0c-b4d2-60ec7b7bc03d}, !- Layer 1
  {6f00b7a3-3d1d-4367-b5c4-ffbbbb90d2da}, !- Layer 2
  {45d29f4e-a665-47de-94fe-872babd721dc}, !- Layer 3
  {3ee13ebf-c39b-47fd-9f60-697700f271fe}; !- Layer 4

OS:StandardsInformation:Construction,
  {ccb04814-8ddf-4b18-911b-e77bcdb6a3b2}, !- Handle
  {7cf19092-a50f-4c15-922f-4ba7724b967a}, !- Construction Name
  ExteriorWall,                           !- Intended Surface Type
  Mass;                                   !- Standards Construction Type

OS:Material,
  {45d29f4e-a665-47de-94fe-872babd721dc}, !- Handle
  Wall Insulation [36],                   !- Name
  MediumRough,                            !- Roughness
  0.0565999999999999,                     !- Thickness {m}
  0.0432,                                 !- Conductivity {W/m-K}
  91,                                     !- Density {kg/m3}
  836.999999999999,                       !- Specific Heat {J/kg-K}
  0.9,                                    !- Thermal Absorptance
  0.5,                                    !- Solar Absorptance
  0.5;                                    !- Visible Absorptance

OS:Construction,
  {5658c18c-6456-44ce-96b5-6c3074037ddc}, !- Handle
  ASHRAE 189.1-2009 ExtWall Mass ClimateZone 4, !- Name
  ,                                       !- Surface Rendering Name
  {111fe57e-0e72-4b0c-b4d2-60ec7b7bc03d}, !- Layer 1
  {6f00b7a3-3d1d-4367-b5c4-ffbbbb90d2da}, !- Layer 2
  {fc81751b-3d5f-4ccd-abf0-3df25f342233}, !- Layer 3
  {3ee13ebf-c39b-47fd-9f60-697700f271fe}; !- Layer 4

OS:StandardsInformation:Construction,
  {176b993b-efc0-4337-aa96-e4a86e230172}, !- Handle
  {5658c18c-6456-44ce-96b5-6c3074037ddc}, !- Construction Name
  ExteriorWall,                           !- Intended Surface Type
  Mass;                                   !- Standards Construction Type

OS:Material,
  {fc81751b-3d5f-4ccd-abf0-3df25f342233}, !- Handle
  Wall Insulation [37],                   !- Name
  MediumRough,                            !- Roughness
  0.0680999999999999,                     !- Thickness {m}
  0.0432,                                 !- Conductivity {W/m-K}
  91,                                     !- Density {kg/m3}
  836.999999999999,                       !- Specific Heat {J/kg-K}
  0.9,                                    !- Thermal Absorptance
  0.5,                                    !- Solar Absorptance
  0.5;                                    !- Visible Absorptance

OS:Construction,
  {258245e8-402c-46ce-8fc7-492fdfb19eac}, !- Handle
  ASHRAE 189.1-2009 ExtWall Mass ClimateZone 5, !- Name
  ,                                       !- Surface Rendering Name
  {111fe57e-0e72-4b0c-b4d2-60ec7b7bc03d}, !- Layer 1
  {6f00b7a3-3d1d-4367-b5c4-ffbbbb90d2da}, !- Layer 2
  {8a7f9786-d685-4f51-af8d-ff63bbc6df66}, !- Layer 3
  {3ee13ebf-c39b-47fd-9f60-697700f271fe}; !- Layer 4

OS:StandardsInformation:Construction,
  {8dc167d8-eb79-4754-8174-d7e88343f65f}, !- Handle
  {258245e8-402c-46ce-8fc7-492fdfb19eac}, !- Construction Name
  ExteriorWall,                           !- Intended Surface Type
  Mass;                                   !- Standards Construction Type

OS:Material,
  {8a7f9786-d685-4f51-af8d-ff63bbc6df66}, !- Handle
  Wall Insulation [40],                   !- Name
  MediumRough,                            !- Roughness
  0.0793999999999999,                     !- Thickness {m}
  0.0432,                                 !- Conductivity {W/m-K}
  91,                                     !- Density {kg/m3}
  836.999999999999,                       !- Specific Heat {J/kg-K}
  0.9,                                    !- Thermal Absorptance
  0.5,                                    !- Solar Absorptance
  0.5;                                    !- Visible Absorptance

OS:Construction,
  {e28b446d-25e9-444f-98b1-b985dd188e11}, !- Handle
  ASHRAE 189.1-2009 ExtWall Mass ClimateZone 6, !- Name
  ,                                       !- Surface Rendering Name
  {111fe57e-0e72-4b0c-b4d2-60ec7b7bc03d}, !- Layer 1
  {6f00b7a3-3d1d-4367-b5c4-ffbbbb90d2da}, !- Layer 2
  {67391249-4dcd-4936-8f87-5cc591471d69}, !- Layer 3
  {3ee13ebf-c39b-47fd-9f60-697700f271fe}; !- Layer 4

OS:StandardsInformation:Construction,
  {8ae1a64f-5608-41da-8c8e-f67b60019983}, !- Handle
  {e28b446d-25e9-444f-98b1-b985dd188e11}, !- Construction Name
  ExteriorWall,                           !- Intended Surface Type
  Mass;                                   !- Standards Construction Type

OS:Material,
  {67391249-4dcd-4936-8f87-5cc591471d69}, !- Handle
  Wall Insulation [42],                   !- Name
  MediumRough,                            !- Roughness
  0.0913999999999999,                     !- Thickness {m}
  0.0432,                                 !- Conductivity {W/m-K}
  91,                                     !- Density {kg/m3}
  836.999999999999,                       !- Specific Heat {J/kg-K}
  0.9,                                    !- Thermal Absorptance
  0.5,                                    !- Solar Absorptance
  0.5;                                    !- Visible Absorptance

OS:Construction,
  {e22b046b-53b9-4cce-abf4-4a6f95905755}, !- Handle
  ASHRAE 189.1-2009 ExtWall Mass ClimateZone 7-8, !- Name
  ,                                       !- Surface Rendering Name
  {111fe57e-0e72-4b0c-b4d2-60ec7b7bc03d}, !- Layer 1
  {6f00b7a3-3d1d-4367-b5c4-ffbbbb90d2da}, !- Layer 2
  {ae243d35-662b-4c03-bec5-01a55d33acbd}, !- Layer 3
  {3ee13ebf-c39b-47fd-9f60-697700f271fe}; !- Layer 4

OS:StandardsInformation:Construction,
  {6e4e759f-fecb-43fe-84a9-e0ce42a9db84}, !- Handle
  {e22b046b-53b9-4cce-abf4-4a6f95905755}, !- Construction Name
  ExteriorWall,                           !- Intended Surface Type
  Mass;                                   !- Standards Construction Type

OS:Material,
  {ae243d35-662b-4c03-bec5-01a55d33acbd}, !- Handle
  Wall Insulation [44],                   !- Name
  MediumRough,                            !- Roughness
  0.1104,                                 !- Thickness {m}
  0.0432,                                 !- Conductivity {W/m-K}
  91,                                     !- Density {kg/m3}
  836.999999999999,                       !- Specific Heat {J/kg-K}
  0.9,                                    !- Thermal Absorptance
  0.5,                                    !- Solar Absorptance
  0.5;                                    !- Visible Absorptance

OS:Construction,
  {307fd4d2-c9f3-432f-8e52-6b8280345fc5}, !- Handle
  ASHRAE 189.1-2009 ExtWall Mass ClimateZone alt-res 1, !- Name
  ,                                       !- Surface Rendering Name
  {111fe57e-0e72-4b0c-b4d2-60ec7b7bc03d}, !- Layer 1
  {6f00b7a3-3d1d-4367-b5c4-ffbbbb90d2da}, !- Layer 2
  {77bb61d8-518d-4552-a674-57af67ef2432}, !- Layer 3
  {3ee13ebf-c39b-47fd-9f60-697700f271fe}; !- Layer 4

OS:StandardsInformation:Construction,
  {79589c79-c301-40de-a181-7c3941256326}, !- Handle
  {307fd4d2-c9f3-432f-8e52-6b8280345fc5}, !- Construction Name
  ExteriorWall,                           !- Intended Surface Type
  Mass;                                   !- Standards Construction Type

OS:Construction,
  {57680898-a9b4-436f-a2a1-f858f78cc813}, !- Handle
  ASHRAE 189.1-2009 ExtWall Mass ClimateZone alt-res 2, !- Name
  ,                                       !- Surface Rendering Name
  {111fe57e-0e72-4b0c-b4d2-60ec7b7bc03d}, !- Layer 1
  {6f00b7a3-3d1d-4367-b5c4-ffbbbb90d2da}, !- Layer 2
  {45d29f4e-a665-47de-94fe-872babd721dc}, !- Layer 3
  {3ee13ebf-c39b-47fd-9f60-697700f271fe}; !- Layer 4

OS:StandardsInformation:Construction,
  {321f3cf1-6977-49ae-b230-380a77bbf4ed}, !- Handle
  {57680898-a9b4-436f-a2a1-f858f78cc813}, !- Construction Name
  ExteriorWall,                           !- Intended Surface Type
  Mass;                                   !- Standards Construction Type

OS:Construction,
  {bfa7b6fa-d456-4cdb-aeec-bbf66e6c375e}, !- Handle
  ASHRAE 189.1-2009 ExtWall Mass ClimateZone alt-res 3, !- Name
  ,                                       !- Surface Rendering Name
  {111fe57e-0e72-4b0c-b4d2-60ec7b7bc03d}, !- Layer 1
  {6f00b7a3-3d1d-4367-b5c4-ffbbbb90d2da}, !- Layer 2
  {fc81751b-3d5f-4ccd-abf0-3df25f342233}, !- Layer 3
  {3ee13ebf-c39b-47fd-9f60-697700f271fe}; !- Layer 4

OS:StandardsInformation:Construction,
  {6211d4cc-d9e4-417b-b41c-7368d625e256}, !- Handle
  {bfa7b6fa-d456-4cdb-aeec-bbf66e6c375e}, !- Construction Name
  ExteriorWall,                           !- Intended Surface Type
  Mass;                                   !- Standards Construction Type

OS:Construction,
  {c7bd9e7c-0146-4c45-8b25-342e0fddb37e}, !- Handle
  ASHRAE 189.1-2009 ExtWall Mass ClimateZone alt-res 4, !- Name
  ,                                       !- Surface Rendering Name
  {111fe57e-0e72-4b0c-b4d2-60ec7b7bc03d}, !- Layer 1
  {6f00b7a3-3d1d-4367-b5c4-ffbbbb90d2da}, !- Layer 2
  {8a7f9786-d685-4f51-af8d-ff63bbc6df66}, !- Layer 3
  {3ee13ebf-c39b-47fd-9f60-697700f271fe}; !- Layer 4

OS:StandardsInformation:Construction,
  {afb502c8-ba87-4134-acaa-694ba96f6373}, !- Handle
  {c7bd9e7c-0146-4c45-8b25-342e0fddb37e}, !- Construction Name
  ExteriorWall,                           !- Intended Surface Type
  Mass;                                   !- Standards Construction Type

OS:Construction,
  {e222ffa8-ab33-4b91-b4e4-8011a78ed026}, !- Handle
  ASHRAE 189.1-2009 ExtWall Mass ClimateZone alt-res 5, !- Name
  ,                                       !- Surface Rendering Name
  {111fe57e-0e72-4b0c-b4d2-60ec7b7bc03d}, !- Layer 1
  {6f00b7a3-3d1d-4367-b5c4-ffbbbb90d2da}, !- Layer 2
  {67391249-4dcd-4936-8f87-5cc591471d69}, !- Layer 3
  {3ee13ebf-c39b-47fd-9f60-697700f271fe}; !- Layer 4

OS:StandardsInformation:Construction,
  {677d5390-bbf3-454b-abf8-b6bf4f4eee69}, !- Handle
  {e222ffa8-ab33-4b91-b4e4-8011a78ed026}, !- Construction Name
  ExteriorWall,                           !- Intended Surface Type
  Mass;                                   !- Standards Construction Type

OS:Construction,
  {28d892a5-cf1e-4d45-8edb-a49d0bb6dcbf}, !- Handle
  ASHRAE 189.1-2009 ExtWall Mass ClimateZone alt-res 6, !- Name
  ,                                       !- Surface Rendering Name
  {111fe57e-0e72-4b0c-b4d2-60ec7b7bc03d}, !- Layer 1
  {6f00b7a3-3d1d-4367-b5c4-ffbbbb90d2da}, !- Layer 2
  {ae243d35-662b-4c03-bec5-01a55d33acbd}, !- Layer 3
  {3ee13ebf-c39b-47fd-9f60-697700f271fe}; !- Layer 4

OS:StandardsInformation:Construction,
  {d68296b0-14e2-4ad0-88ed-c7ef737766f7}, !- Handle
  {28d892a5-cf1e-4d45-8edb-a49d0bb6dcbf}, !- Construction Name
  ExteriorWall,                           !- Intended Surface Type
  Mass;                                   !- Standards Construction Type

OS:Construction,
  {4838b7a1-5cbc-4e08-9801-bf0fd12ef8c8}, !- Handle
  ASHRAE 189.1-2009 ExtWall Mass ClimateZone alt-res 7, !- Name
  ,                                       !- Surface Rendering Name
  {111fe57e-0e72-4b0c-b4d2-60ec7b7bc03d}, !- Layer 1
  {6f00b7a3-3d1d-4367-b5c4-ffbbbb90d2da}, !- Layer 2
  {ae243d35-662b-4c03-bec5-01a55d33acbd}, !- Layer 3
  {3ee13ebf-c39b-47fd-9f60-697700f271fe}; !- Layer 4

OS:StandardsInformation:Construction,
  {bec1c9a9-d2f3-488f-989d-f167bf5613a1}, !- Handle
  {4838b7a1-5cbc-4e08-9801-bf0fd12ef8c8}, !- Construction Name
  ExteriorWall,                           !- Intended Surface Type