
OS:Version,
  {b4c37d3d-a75a-41ad-831b-18ef9e33b748}, !- Handle
  1.3.3;                                  !- Version Identifier

OS:SpaceType,
  {e986f5da-4bd2-4c62-b903-723e4ed46d33}, !- Handle
  189.1-2009 - Office - BreakRoom - CZ1-3, !- Name
  ,                                       !- Default Construction Set Name
  {c0017ee1-287c-48cb-a14d-701b7379d5b4}, !- Default Schedule Set Name
  {397e7d2e-ad08-4c46-81e9-99e1db7de2d5}, !- Group Rendering Name
  {767597e5-7f57-4bca-ac3b-6200fc4bf6b4}, !- Design Specification Outdoor Air Object Name
  Office,                                 !- Standards Building Type
  BreakRoom;                              !- Standards Space Type

OS:Rendering:Color,
  {397e7d2e-ad08-4c46-81e9-99e1db7de2d5}, !- Handle
  Rendering Color 1,                      !- Name
  230,                                    !- Rendering Red Value
  157,                                    !- Rendering Green Value
  120;                                    !- Rendering Blue Value

OS:DefaultScheduleSet,
  {c0017ee1-287c-48cb-a14d-701b7379d5b4}, !- Handle
  189.1-2009 - Office - BreakRoom - CZ1-3 Schedule Set, !- Name
  ,                                       !- Hours of Operation Schedule Name
  {6a375ca6-1b95-4147-a4bf-7ac3d4f0ca68}, !- Number of People Schedule Name
  {d1a7d127-654d-4ed2-8c07-cce3f57dbd98}, !- People Activity Level Schedule Name
  {0fc6aee6-9d5e-403a-b86b-195c345d9ef4}, !- Lighting Schedule Name
  {6817277f-da0f-4c67-813f-d702e60d9441}, !- Electric Equipment Schedule Name
  ,                                       !- Gas Equipment Schedule Name
  ,                                       !- Hot Water Equipment Schedule Name
  {e2836ad8-81b8-4824-8376-7baf4c96aac3}, !- Infiltration Schedule Name
  ,                                       !- Steam Equipment Schedule Name
  ;                                       !- Other Equipment Schedule Name

OS:Lights:Definition,
  {c0b0e4e2-7081-46e2-baa9-48bb101a9693}, !- Handle
  189.1-2009 - Office - BreakRoom - CZ1-3 Lights Definition, !- Name
  Watts/Area,                             !- Design Level Calculation Method
  ,                                       !- Lighting Level {W}
  11.6250232500465,                       !- Watts per Space Floor Area {W/m2}
  ;                                       !- Watts per Person {W/person}

OS:Lights,
  {91c54c1d-5b84-4651-b50b-cb69ee95b79d}, !- Handle
  189.1-2009 - Office - BreakRoom - CZ1-3 Lights, !- Name
  {c0b0e4e2-7081-46e2-baa9-48bb101a9693}, !- Lights Definition Name
  {e986f5da-4bd2-4c62-b903-723e4ed46d33}; !- Space or SpaceType Name

OS:Schedule:Ruleset,
  {0fc6aee6-9d5e-403a-b86b-195c345d9ef4}, ! Handle
  Office Bldg Light,                      ! Name
  {be429bab-3944-4e11-95dc-08508713eee9}, ! Schedule Type Limits Name
  {3393ddea-bc19-429d-a125-4fe84f6c076c}, ! Default Day Schedule Name
  {8547adb9-5f4a-4d91-8869-6baeef48b5fe}, ! Summer Design Day Schedule Name
  {8f2f4bf4-8ff4-4d42-b014-1ab22320afd2}; ! Winter Design Day Schedule Name

OS:ScheduleTypeLimits,
  {be429bab-3944-4e11-95dc-08508713eee9}, ! Handle
  Fraction,                               ! Name
  0,                                      ! Lower Limit Value
  1,                                      ! Upper Limit Value
  CONTINUOUS;                             ! Numeric Type

OS:Schedule:Day,
  {3393ddea-bc19-429d-a125-4fe84f6c076c}, ! Handle
  Office Bldg Light Default Schedule,     ! Name
  {be429bab-3944-4e11-95dc-08508713eee9}, ! Schedule Type Limits Name
  ,                                       ! Interpolate to Timestep
  5,                                      !- Hour 1
  0,                                      !- Minute 1
  0.05,                                   !- Value Until Time 1
  7,                                      !- Hour 2
  0,                                      !- Minute 2
  0.1,                                    !- Value Until Time 2
  8,                                      !- Hour 3
  0,                                      !- Minute 3
  0.3,                                    !- Value Until Time 3
  17,                                     !- Hour 4
  0,                                      !- Minute 4
  0.9,                                    !- Value Until Time 4
  18,                                     !- Hour 5
  0,                                      !- Minute 5
  0.7,                                    !- Value Until Time 5
  20,                                     !- Hour 6
  0,                                      !- Minute 6
  0.5,                                    !- Value Until Time 6
  22,                                     !- Hour 7
  0,                                      !- Minute 7
  0.3,                                    !- Value Until Time 7
  23,                                     !- Hour 8
  0,                                      !- Minute 8
  0.1,                                    !- Value Until Time 8
  24,                                     !- Hour 9
  0,                                      !- Minute 9
  0.05;                                   !- Value Until Time 9

OS:Schedule:Day,
  {8547adb9-5f4a-4d91-8869-6baeef48b5fe}, ! Handle
  Office Bldg Light Summer Design Day,    ! Name
  {be429bab-3944-4e11-95dc-08508713eee9}, ! Schedule Type Limits Name
  ,                                       ! Interpolate to Timestep
  24,                                     ! Hour 1
  0,                                      ! Minute 1
  1;                                      ! Value Until Time 1

OS:Schedule:Day,
  {8f2f4bf4-8ff4-4d42-b014-1ab22320afd2}, ! Handle
  Office Bldg Light Winter Design Day,    ! Name
  {be429bab-3944-4e11-95dc-08508713eee9}, ! Schedule Type Limits Name
  ,                                       ! Interpolate to Timestep
  24,                                     ! Hour 1
  0,                                      ! Minute 1
  0;                                      ! Value Until Time 1

OS:Schedule:Rule,
  {8edffe87-45c6-4717-b4af-033b07585ba3}, ! Handle
  Office Bldg Light Rule 1,               ! Name
  {0fc6aee6-9d5e-403a-b86b-195c345d9ef4}, ! Schedule Ruleset Name
  0,                                      ! Rule Order
  {71968211-1474-4afa-bdc4-8ed6d84e2515}, ! Day Schedule Name
  Yes,                                    ! Apply Sunday
  No,                                     ! Apply Monday
  No,                                     ! Apply Tuesday
  No,                                     ! Apply Wednesday
  No,                                     ! Apply Thursday
  No,                                     ! Apply Friday
  No,                                     ! Apply Saturday
  ,                                       ! Apply Holiday
  DateRange,                              ! Date Specification Type
  1,                                      ! Start Month
  1,                                      ! Start Day
  12,                                     ! End Month
  31;                                     ! End Day

OS:Schedule:Day,
  {71968211-1474-4afa-bdc4-8ed6d84e2515}, ! Handle
  Office Bldg Light Rule 1 Day Schedule,  ! Name
  {be429bab-3944-4e11-95dc-08508713eee9}, ! Schedule Type Limits Name
  ,                                       ! Interpolate to Timestep
  24,                                     ! Hour 1
  0,                                      ! Minute 1
  0.050000000000000003;                   ! Value Until Time 1

OS:Schedule:Rule,
  {6a85e0af-7079-4f84-af07-41312547515e}, ! Handle
  Office Bldg Light Rule 2,               ! Name
  {0fc6aee6-9d5e-403a-b86b-195c345d9ef4}, ! Schedule Ruleset Name
  1,                                      ! Rule Order
  {86570249-d6c5-4edc-969e-20d355230b85}, ! Day Schedule Name
  No,                                     ! Apply Sunday
  No,                                     ! Apply Monday
  No,                                     ! Apply Tuesday
  No,                                     ! Apply Wednesday
  No,                                     ! Apply Thursday
  No,                                     ! Apply Friday
  Yes,                                    ! Apply Saturday
  ,                                       ! Apply Holiday
  DateRange,                              ! Date Specification Type
  1,                                      ! Start Month
  1,                                      ! Start Day
  12,                                     ! End Month
  31;                                     ! End Day

OS:Schedule:Day,
  {86570249-d6c5-4edc-969e-20d355230b85}, ! Handle
  Office Bldg Light Rule 2 Day Schedule,  ! Name
  {be429bab-3944-4e11-95dc-08508713eee9}, ! Schedule Type Limits Name
  ,                                       ! Interpolate to Timestep
  6,                                      ! Hour 1
  0,                                      ! Minute 1
  0.050000000000000003,                   ! Value Until Time 1
  8,                                      ! Hour 2
  0,                                      ! Minute 2
  0.10000000000000001,                    ! Value Until Time 2
  14,                                     ! Hour 3
  0,                                      ! Minute 3
  0.5,                                    ! Value Until Time 3
  17,                                     ! Hour 4
  0,                                      ! Minute 4
  0.14999999999999999,                    ! Value Until Time 4
  24,                                     ! Hour 5
  0,                                      ! Minute 5
  0.050000000000000003;                   ! Value Until Time 5

OS:DesignSpecification:OutdoorAir,
  {767597e5-7f57-4bca-ac3b-6200fc4bf6b4}, !- Handle
  189.1-2009 - Office - BreakRoom - CZ1-3 Ventilation, !- Name
  Sum,                                    !- Outdoor Air Method
  0.007079211648,                         !- Outdoor Air Flow per Person {m3/s-person}
  ,                                       !- Outdoor Air Flow per Floor Area {m3/s-m2}
  ,                                       !- Outdoor Air Flow Rate {m3/s}
  ,                                       !- Outdoor Air Flow Air Changes per Hour {1/hr}
  ;                                       !- Outdoor Air Flow Rate Fraction Schedule Name

OS:People:Definition,
  {b738a291-ee26-439a-ab9a-670d31859f0a}, !- Handle
  189.1-2009 - Office - BreakRoom - CZ1-3 People Definition, !- Name
  People/Area,                            !- Number of People Calculation Method
  ,                                       !- Number of People {people}
  0.538195520835486,                      !- People per Space Floor Area {person/m2}
  ,                                       !- Space Floor Area per Person {m2/person}
  0.3;                                    !- Fraction Radiant

OS:People,
  {565cb5ab-5608-4a8b-ae62-eb962a5dcdfb}, !- Handle
  189.1-2009 - Office - BreakRoom - CZ1-3 People, !- Name
  {b738a291-ee26-439a-ab9a-670d31859f0a}, !- People Definition Name
  {e986f5da-4bd2-4c62-b903-723e4ed46d33}; !- Space or SpaceType Name

OS:Schedule:Ruleset,
  {6a375ca6-1b95-4147-a4bf-7ac3d4f0ca68}, ! Handle
  Office Misc Occ,                        ! Name
  {be429bab-3944-4e11-95dc-08508713eee9}, ! Schedule Type Limits Name
  {5be17363-4f41-442e-a401-3906c71a626d}, ! Default Day Schedule Name
  {5a83d643-b41a-4be1-a246-2420db645ace}, ! Summer Design Day Schedule Name
  {fc9bf9c7-d4b5-40e8-a823-b363065c28bb}; ! Winter Design Day Schedule Name

OS:Schedule:Day,
  {5be17363-4f41-442e-a401-3906c71a626d}, ! Handle
  Office Bldg Occ Default Schedule 1,     ! Name
  {be429bab-3944-4e11-95dc-08508713eee9}, ! Schedule Type Limits Name
  ,                                       ! Interpolate to Timestep
  6,                                      !- Hour 1
  0,                                      !- Minute 1
  0,                                      !- Value Until Time 1
  7,                                      !- Hour 2
  0,                                      !- Minute 2
  0.100000001490116,                      !- Value Until Time 2
  8,                                      !- Hour 3
  0,                                      !- Minute 3
  0.200000002980232,                      !- Value Until Time 3
  20,                                     !- Hour 4
  0,                                      !- Minute 4
  0.400000005960464,                      !- Value Until Time 4
  22,                                     !- Hour 5
  0,                                      !- Minute 5
  0.100000001490116,                      !- Value Until Time 5
  24,                                     !- Hour 6
  0,                                      !- Minute 6
  0.0500000007450581;                     !- Value Until Time 6

OS:Schedule:Day,
  {5a83d643-b41a-4be1-a246-2420db645ace}, ! Handle
  Office Bldg Occ Summer Design Day 1,    ! Name
  {be429bab-3944-4e11-95dc-08508713eee9}, ! Schedule Type Limits Name
  ,                                       ! Interpolate to Timestep
  6,                                      ! Hour 1
  0,                                      ! Minute 1
  0,                                      ! Value Until Time 1
  22,                                     ! Hour 2
  0,                                      ! Minute 2
  1,                                      ! Value Until Time 2
  24,                                     ! Hour 3
  0,                                      ! Minute 3
  0.050000000000000003;                   ! Value Until Time 3

OS:Schedule:Day,
  {fc9bf9c7-d4b5-40e8-a823-b363065c28bb}, ! Handle
  Office Bldg Occ Winter Design Day 1,    ! Name
  {be429bab-3944-4e11-95dc-08508713eee9}, ! Schedule Type Limits Name
  ,                                       ! Interpolate to Timestep
  24,                                     ! Hour 1
  0,                                      ! Minute 1
  0;                                      ! Value Until Time 1

OS:Schedule:Rule,
  {58b721c6-95d8-444e-8cea-bf16d0d79805}, ! Handle
  Office Misc Occ Rule 1,                 ! Name
  {6a375ca6-1b95-4147-a4bf-7ac3d4f0ca68}, ! Schedule Ruleset Name
  0,                                      ! Rule Order
  {931e825f-099d-4edf-8c8d-5e200eb73644}, ! Day Schedule Name
  Yes,                                    ! Apply Sunday
  No,                                     ! Apply Monday
  No,                                     ! Apply Tuesday
  No,                                     ! Apply Wednesday
  No,                                     ! Apply Thursday
  No,                                     ! Apply Friday
  No,                                     ! Apply Saturday
  ,                                       ! Apply Holiday
  DateRange,                              ! Date Specification Type
  1,                                      ! Start Month
  1,                                      ! Start Day
  12,                                     ! End Month
  31;                                     ! End Day

OS:Schedule:Day,
  {931e825f-099d-4edf-8c8d-5e200eb73644}, ! Handle
  Office Bldg Occ Rule 1 Day Schedule 1,  ! Name
  {be429bab-3944-4e11-95dc-08508713eee9}, ! Schedule Type Limits Name
  ,                                       ! Interpolate to Timestep
  24,                                     ! Hour 1
  0,                                      ! Minute 1
  0;                                      ! Value Until Time 1

OS:Schedule:Rule,
  {5c78d01a-34e0-4bf3-9e2a-efb281a51292}, ! Handle
  Office Misc Occ Rule 2,                 ! Name
  {6a375ca6-1b95-4147-a4bf-7ac3d4f0ca68}, ! Schedule Ruleset Name
  1,                                      ! Rule Order
  {34ee02d9-0b61-4e94-b931-a26854dee928}, ! Day Schedule Name
  No,                                     ! Apply Sunday
  No,                                     ! Apply Monday
  No,                                     ! Apply Tuesday
  No,                                     ! Apply Wednesday
  No,                                     ! Apply Thursday
  No,                                     ! Apply Friday
  Yes,                                    ! Apply Saturday
  ,                                       ! Apply Holiday
  DateRange,                              ! Date Specification Type
  1,                                      ! Start Month
  1,                                      ! Start Day
  12,                                     ! End Month
  31;                                     ! End Day

OS:Schedule:Day,
  {34ee02d9-0b61-4e94-b931-a26854dee928}, ! Handle
  Office Bldg Occ Rule 2 Day Schedule 1,  ! Name
  {be429bab-3944-4e11-95dc-08508713eee9}, ! Schedule Type Limits Name
  ,                                       ! Interpolate to Timestep
  6,                                      !- Hour 1
  0,                                      !- Minute 1
  0,                                      !- Value Until Time 1
  8,                                      !- Hour 2
  0,                                      !- Minute 2
  0.100000001490116,                      !- Value Until Time 2
  14,                                     !- Hour 3
  0,                                      !- Minute 3
  0.25,                                   !- Value Until Time 3
  17,                                     !- Hour 4
  0,                                      !- Minute 4
  0.100000001490116,                      !- Value Until Time 4
  24,                                     !- Hour 5
  0,                                      !- Minute 5
  0;                                      !- Value Until Time 5

OS:Schedule:Ruleset,
  {d1a7d127-654d-4ed2-8c07-cce3f57dbd98}, ! Handle
  Office Activity,                        ! Name
  {9292522c-8e8d-4150-aafd-8b06bc6a3c22}, ! Schedule Type Limits Name
  {be039c78-744e-434a-9deb-01610e95ab7d}, ! Default Day Schedule Name
  {05505fd9-719b-4a49-9b84-ede97796f93e}, ! Summer Design Day Schedule Name
  {0874e7c5-ddd2-4352-86f2-ecde2f19274e}; ! Winter Design Day Schedule Name

OS:ScheduleTypeLimits,
  {9292522c-8e8d-4150-aafd-8b06bc6a3c22}, !- Handle
  ActivityLevel,                          !- Name
  0,                                      !- Lower Limit Value {BasedOnField A4}
  ,                                       !- Upper Limit Value {BasedOnField A4}
  Continuous,                             !- Numeric Type
  ActivityLevel;                          !- Unit Type

OS:Schedule:Day,
  {be039c78-744e-434a-9deb-01610e95ab7d}, ! Handle
  Office Activity Default Schedule,       ! Name
  {9292522c-8e8d-4150-aafd-8b06bc6a3c22}, ! Schedule Type Limits Name
  ,                                       ! Interpolate to Timestep
  24,                                     !- Hour 1
  0,                                      !- Minute 1
  132;                                    !- Value Until Time 1

OS:Schedule:Day,
  {05505fd9-719b-4a49-9b84-ede97796f93e}, ! Handle
  Office Activity Summer Design Day,      ! Name
  {9292522c-8e8d-4150-aafd-8b06bc6a3c22}, ! Schedule Type Limits Name
  ,                                       ! Interpolate to Timestep
  24,                                     !- Hour 1
  0,                                      !- Minute 1
  132;                                    !- Value Until Time 1

OS:Schedule:Day,
  {0874e7c5-ddd2-4352-86f2-ecde2f19274e}, ! Handle
  Office Activity Winter Design Day,      ! Name
  {9292522c-8e8d-4150-aafd-8b06bc6a3c22}, ! Schedule Type Limits Name
  ,                                       ! Interpolate to Timestep
  24,                                     !- Hour 1
  0,                                      !- Minute 1
  132;                                    !- Value Until Time 1

OS:SpaceInfiltration:DesignFlowRate,
  {f9c058a7-6350-4657-91f6-67ed3a25df21}, !- Handle
  189.1-2009 - Office - BreakRoom - CZ1-3 Infiltration, !- Name
  {e986f5da-4bd2-4c62-b903-723e4ed46d33}, !- Space or SpaceType Name
  ,                                       !- Schedule Name
  Flow/ExteriorArea,                      !- Design Flow Rate Calculation Method
  ,                                       !- Design Flow Rate {m3/s}
  ,                                       !- Flow per Space Floor Area {m3/s-m2}
  0.00030226,                             !- Flow per Exterior Surface Area {m3/s-m2}
  ,                                       !- Air Changes per Hour {1/hr}
  ,                                       !- Constant Term Coefficient
  ,                                       !- Temperature Term Coefficient
  ,                                       !- Velocity Term Coefficient
  ;                                       !- Velocity Squared Term Coefficient

OS:Schedule:Ruleset,
  {e2836ad8-81b8-4824-8376-7baf4c96aac3}, ! Handle
  Office Infil Quarter On,                ! Name
  {be429bab-3944-4e11-95dc-08508713eee9}, ! Schedule Type Limits Name
  {c5df0783-bb39-4737-9de0-9a7044e4e09e}, ! Default Day Schedule Name
  {64c0d30d-2ee4-4c45-ad5c-599193833c72}, ! Summer Design Day Schedule Name
  {fa9e0b57-e964-4584-be37-49ea8b7abb7e}; ! Winter Design Day Schedule Name

OS:Schedule:Day,
  {c5df0783-bb39-4737-9de0-9a7044e4e09e}, ! Handle
  Office Infil Quarter On Default Schedule, ! Name
  {be429bab-3944-4e11-95dc-08508713eee9}, ! Schedule Type Limits Name
  ,                                       ! Interpolate to Timestep
  6,                                      !- Hour 1
  0,                                      !- Minute 1
  1,                                      !- Value Until Time 1
  22,                                     !- Hour 2
  0,                                      !- Minute 2
  0.25,                                   !- Value Until Time 2
  24,                                     !- Hour 3
  0,                                      !- Minute 3
  1;                                      !- Value Until Time 3

OS:Schedule:Day,
  {64c0d30d-2ee4-4c45-ad5c-599193833c72}, ! Handle
  Office Infil Quarter On Summer Design Day, ! Name
  {be429bab-3944-4e11-95dc-08508713eee9}, ! Schedule Type Limits Name
  ,                                       ! Interpolate to Timestep
  6,                                      ! Hour 1
  0,                                      ! Minute 1
  1,                                      ! Value Until Time 1
  22,                                     ! Hour 2
  0,                                      ! Minute 2
  0.25,                                   ! Value Until Time 2
  24,                                     ! Hour 3
  0,                                      ! Minute 3
  1;                                      ! Value Until Time 3

OS:Schedule:Day,
  {fa9e0b57-e964-4584-be37-49ea8b7abb7e}, ! Handle
  Office Infil Quarter On Winter Design Day, ! Name
  {be429bab-3944-4e11-95dc-08508713eee9}, ! Schedule Type Limits Name
  ,                                       ! Interpolate to Timestep
  6,                                      ! Hour 1
  0,                                      ! Minute 1
  1,                                      ! Value Until Time 1
  18,                                     ! Hour 2
  0,                                      ! Minute 2
  0.25,                                   ! Value Until Time 2
  24,                                     ! Hour 3
  0,                                      ! Minute 3
  1;                                      ! Value Until Time 3

OS:Schedule:Rule,
  {17c19824-27a2-4d19-87fc-265daa14137f}, ! Handle
  Office Infil Quarter On Rule 1,         ! Name
  {e2836ad8-81b8-4824-8376-7baf4c96aac3}, ! Schedule Ruleset Name
  0,                                      ! Rule Order
  {45ba6ef3-e90e-4371-8814-888434e09928}, ! Day Schedule Name
  Yes,                                    ! Apply Sunday
  No,                                     ! Apply Monday
  No,                                     ! Apply Tuesday
  No,                                     ! Apply Wednesday
  No,                                     ! Apply Thursday
  No,                                     ! Apply Friday
  No,                                     ! Apply Saturday
  ,                                       ! Apply Holiday
  DateRange,                              ! Date Specification Type
  1,                                      ! Start Month
  1,                                      ! Start Day
  12,                                     ! End Month
  31;                                     ! End Day

OS:Schedule:Day,
  {45ba6ef3-e90e-4371-8814-888434e09928}, ! Handle
  Office Infil Quarter On Rule 1 Day Schedule, ! Name
  {be429bab-3944-4e11-95dc-08508713eee9}, ! Schedule Type Limits Name
  ,                                       ! Interpolate to Timestep
  24,                                     ! Hour 1
  0,                                      ! Minute 1
  1;                                      ! Value Until Time 1

OS:Schedule:Rule,
  {1ea7fab4-bbd8-4617-b398-2cd4930084cb}, ! Handle
  Office Infil Quarter On Rule 2,         ! Name
  {e2836ad8-81b8-4824-8376-7baf4c96aac3}, ! Schedule Ruleset Name
  1,                                      ! Rule Order
  {a991840d-70e7-49ad-9ef0-5ae5f2976bc3}, ! Day Schedule Name
  No,                                     ! Apply Sunday
  No,                                     ! Apply Monday
  No,                                     ! Apply Tuesday
  No,                                     ! Apply Wednesday
  No,                                     ! Apply Thursday
  No,                                     ! Apply Friday
  Yes,                                    ! Apply Saturday
  ,                                       ! Apply Holiday
  DateRange,                              ! Date Specification Type
  1,                                      ! Start Month
  1,                                      ! Start Day
  12,                                     ! End Month
  31;                                     ! End Day

OS:Schedule:Day,
  {a991840d-70e7-49ad-9ef0-5ae5f2976bc3}, ! Handle
  Office Infil Quarter On Rule 2 Day Schedule, ! Name
  {be429bab-3944-4e11-95dc-08508713eee9}, ! Schedule Type Limits Name
  ,                                       ! Interpolate to Timestep
  6,                                      ! Hour 1
  0,                                      ! Minute 1
  1,                                      ! Value Until Time 1
  18,                                     ! Hour 2
  0,                                      ! Minute 2
  0.25,                                   ! Value Until Time 2
  24,                                     ! Hour 3
  0,                                      ! Minute 3
  1;                                      ! Value Until Time 3

OS:ElectricEquipment:Definition,
  {61a353fd-1483-434f-86e4-7f8258246d21}, !- Handle
  189.1-2009 - Office - BreakRoom - CZ1-3 Electric Equipment Definition, !- Name
  Watts/Area,                             !- Design Level Calculation Method
  ,                                       !- Design Level {W}
  48.0070404585254,                       !- Watts per Space Floor Area {W/m2}
  ;                                       !- Watts per Person {W/person}

OS:ElectricEquipment,
  {20d467b9-52d2-40df-b75c-c873f7c715c3}, !- Handle
  189.1-2009 - Office - BreakRoom - CZ1-3 Electric Equipment, !- Name
  {61a353fd-1483-434f-86e4-7f8258246d21}, !- Electric Equipment Definition Name
  {e986f5da-4bd2-4c62-b903-723e4ed46d33}; !- Space or SpaceType Name

OS:Schedule:Ruleset,
  {6817277f-da0f-4c67-813f-d702e60d9441}, ! Handle
  Office Bldg Equip,                      ! Name
  {be429bab-3944-4e11-95dc-08508713eee9}, ! Schedule Type Limits Name
  {c7266841-e1f8-4336-96c7-537405041b45}, ! Default Day Schedule Name
  {46695b22-9d3d-43fc-aabf-0fa1a4028700}, ! Summer Design Day Schedule Name
  {7f9cdd7d-311d-48b3-a927-052eb31e484f}; ! Winter Design Day Schedule Name

OS:Schedule:Day,
  {c7266841-e1f8-4336-96c7-537405041b45}, ! Handle
  Office Bldg Equip Default Schedule,     ! Name
  {be429bab-3944-4e11-95dc-08508713eee9}, ! Schedule Type Limits Name
  ,                                       ! Interpolate to Timestep
  8,                                      !- Hour 1
  0,                                      !- Minute 1
  0.4,                                    !- Value Until Time 1
  12,                                     !- Hour 2
  0,                                      !- Minute 2
  0.9,                                    !- Value Until Time 2
  13,                                     !- Hour 3
  0,                                      !- Minute 3
  0.8,                                    !- Value Until Time 3
  17,                                     !- Hour 4
  0,                                      !- Minute 4
  0.9,                                    !- Value Until Time 4
  18,                                     !- Hour 5
  0,                                      !- Minute 5
  0.8,                                    !- Value Until Time 5
  20,                                     !- Hour 6
  0,                                      !- Minute 6
  0.6,                                    !- Value Until Time 6
  22,                                     !- Hour 7
  0,                                      !- Minute 7
  0.5,                                    !- Value Until Time 7
  24,                                     !- Hour 8
  0,                                      !- Minute 8
  0.4;                                    !- Value Until Time 8

OS:Schedule:Day,
  {46695b22-9d3d-43fc-aabf-0fa1a4028700}, ! Handle