
OS:Version,
  {431adf04-b291-441c-b570-78675770d89c}, !- Handle
  1.2.3;                                  !- Version Identifier

OS:SpaceType,
  {2bd0fe1d-3f2c-454b-ba6d-d667670ae7f8}, !- Handle
  189.1-2009 - Office - BreakRoom - CZ1-3, !- Name
  ,                                       !- Default Construction Set Name
  {b80a869e-58e9-4499-8c2e-b70ba6f921d0}, !- Default Schedule Set Name
  {7b5cf8bf-2623-482b-9919-c10c45a4922b}, !- Group Rendering Name
  {42d54377-02c4-4afc-967c-e051d8803fa3}, !- Design Specification Outdoor Air Object Name
  Office,                                 !- Standards Building Type
  BreakRoom;                              !- Standards Space Type

OS:Rendering:Color,
  {7b5cf8bf-2623-482b-9919-c10c45a4922b}, !- Handle
  Rendering Color 1,                      !- Name
  230,                                    !- Rendering Red Value
  157,                                    !- Rendering Green Value
  120;                                    !- Rendering Blue Value

OS:DefaultScheduleSet,
  {b80a869e-58e9-4499-8c2e-b70ba6f921d0}, !- Handle
  189.1-2009 - Office - BreakRoom - CZ1-3 Schedule Set, !- Name
  ,                                       !- Hours of Operation Schedule Name
  {50fe7ef4-c584-4c13-b974-13a1c65d4094}, !- Number of People Schedule Name
  {619a52f5-a1c2-42d2-9058-b3e7908cc155}, !- People Activity Level Schedule Name
  {7fa6c176-37a0-47ec-80d8-d56f159cc6b5}, !- Lighting Schedule Name
  {faeb5799-20a9-447b-b6aa-dec955c1e72b}, !- Electric Equipment Schedule Name
  ,                                       !- Gas Equipment Schedule Name
  ,                                       !- Hot Water Equipment Schedule Name
  {76667f8b-3c6d-47e1-93c3-7cd8c636f322}, !- Infiltration Schedule Name
  ,                                       !- Steam Equipment Schedule Name
  ;                                       !- Other Equipment Schedule Name

OS:Lights:Definition,
  {77a2bdff-5668-457c-89e2-f01822c5210b}, !- Handle
  189.1-2009 - Office - BreakRoom - CZ1-3 Lights Definition, !- Name
  Watts/Area,                             !- Design Level Calculation Method
  ,                                       !- Lighting Level {W}
  11.6250232500465,                       !- Watts per Space Floor Area {W/m2}
  ;                                       !- Watts per Person {W/person}

OS:Lights,
  {76810f53-eef7-4f67-8677-1aec017f69cb}, !- Handle
  189.1-2009 - Office - BreakRoom - CZ1-3 Lights, !- Name
  {77a2bdff-5668-457c-89e2-f01822c5210b}, !- Lights Definition Name
  {2bd0fe1d-3f2c-454b-ba6d-d667670ae7f8}; !- Space or SpaceType Name

OS:Schedule:Ruleset,
  {7fa6c176-37a0-47ec-80d8-d56f159cc6b5}, ! Handle
  Office Bldg Light,                      ! Name
  {8e512b74-d12a-4ab1-9b1b-e9dd30112a23}, ! Schedule Type Limits Name
  {d3a8d63e-e53b-44df-9d07-a96df7bc77e4}, ! Default Day Schedule Name
  {160da98c-2eb9-4566-aa96-118604c48234}, ! Summer Design Day Schedule Name
  {2be384ee-335b-4ee7-88ae-f8db8d3cd735}; ! Winter Design Day Schedule Name

OS:ScheduleTypeLimits,
  {8e512b74-d12a-4ab1-9b1b-e9dd30112a23}, ! Handle
  Fraction,                               ! Name
  0,                                      ! Lower Limit Value
  1,                                      ! Upper Limit Value
  CONTINUOUS;                             ! Numeric Type

OS:Schedule:Day,
  {d3a8d63e-e53b-44df-9d07-a96df7bc77e4}, ! Handle
  Office Bldg Light Default Schedule,     ! Name
  {8e512b74-d12a-4ab1-9b1b-e9dd30112a23}, ! Schedule Type Limits Name
  ,                                       ! Interpolate to Timestep
  5,                                      !- Hour 1
  0,                                      !- Minute 1
  0.05,                                   !- Value Until Time 1
  7,                                      !- Hour 2
  0,                                      !- Minute 2
  0.1,                                    !- Value Until Time 2
  8,                                      !- Hour 3
  0,                                      !- Minute 3
  0.3,                                    !- Value Until Time 3
  17,                                     !- Hour 4
  0,                                      !- Minute 4
  0.9,                                    !- Value Until Time 4
  18,                                     !- Hour 5
  0,                                      !- Minute 5
  0.7,                                    !- Value Until Time 5
  20,                                     !- Hour 6
  0,                                      !- Minute 6
  0.5,                                    !- Value Until Time 6
  22,                                     !- Hour 7
  0,                                      !- Minute 7
  0.3,                                    !- Value Until Time 7
  23,                                     !- Hour 8
  0,                                      !- Minute 8
  0.1,                                    !- Value Until Time 8
  24,                                     !- Hour 9
  0,                                      !- Minute 9
  0.05;                                   !- Value Until Time 9

OS:Schedule:Day,
  {160da98c-2eb9-4566-aa96-118604c48234}, ! Handle
  Office Bldg Light Summer Design Day,    ! Name
  {8e512b74-d12a-4ab1-9b1b-e9dd30112a23}, ! Schedule Type Limits Name
  ,                                       ! Interpolate to Timestep
  24,                                     ! Hour 1
  0,                                      ! Minute 1
  1;                                      ! Value Until Time 1

OS:Schedule:Day,
  {2be384ee-335b-4ee7-88ae-f8db8d3cd735}, ! Handle
  Office Bldg Light Winter Design Day,    ! Name
  {8e512b74-d12a-4ab1-9b1b-e9dd30112a23}, ! Schedule Type Limits Name
  ,                                       ! Interpolate to Timestep
  24,                                     ! Hour 1
  0,                                      ! Minute 1
  0;                                      ! Value Until Time 1

OS:Schedule:Rule,
  {cc040542-21a7-4ff1-b198-c071c2c31ee3}, ! Handle
  Office Bldg Light Rule 1,               ! Name
  {7fa6c176-37a0-47ec-80d8-d56f159cc6b5}, ! Schedule Ruleset Name
  0,                                      ! Rule Order
  {b1a6a889-2a1f-4900-8f1a-b426beee6a64}, ! Day Schedule Name
  Yes,                                    ! Apply Sunday
  No,                                     ! Apply Monday
  No,                                     ! Apply Tuesday
  No,                                     ! Apply Wednesday
  No,                                     ! Apply Thursday
  No,                                     ! Apply Friday
  No,                                     ! Apply Saturday
  ,                                       ! Apply Holiday
  DateRange,                              ! Date Specification Type
  1,                                      ! Start Month
  1,                                      ! Start Day
  12,                                     ! End Month
  31;                                     ! End Day

OS:Schedule:Day,
  {b1a6a889-2a1f-4900-8f1a-b426beee6a64}, ! Handle
  Office Bldg Light Rule 1 Day Schedule,  ! Name
  {8e512b74-d12a-4ab1-9b1b-e9dd30112a23}, ! Schedule Type Limits Name
  ,                                       ! Interpolate to Timestep
  24,                                     ! Hour 1
  0,                                      ! Minute 1
  0.050000000000000003;                   ! Value Until Time 1

OS:Schedule:Rule,
  {8f06e90a-b0e0-4f2f-b02b-0c5ef498f106}, ! Handle
  Office Bldg Light Rule 2,               ! Name
  {7fa6c176-37a0-47ec-80d8-d56f159cc6b5}, ! Schedule Ruleset Name
  1,                                      ! Rule Order
  {132ea12d-3e8f-4b17-a744-8258b9e3d941}, ! Day Schedule Name
  No,                                     ! Apply Sunday
  No,                                     ! Apply Monday
  No,                                     ! Apply Tuesday
  No,                                     ! Apply Wednesday
  No,                                     ! Apply Thursday
  No,                                     ! Apply Friday
  Yes,                                    ! Apply Saturday
  ,                                       ! Apply Holiday
  DateRange,                              ! Date Specification Type
  1,                                      ! Start Month
  1,                                      ! Start Day
  12,                                     ! End Month
  31;                                     ! End Day

OS:Schedule:Day,
  {132ea12d-3e8f-4b17-a744-8258b9e3d941}, ! Handle
  Office Bldg Light Rule 2 Day Schedule,  ! Name
  {8e512b74-d12a-4ab1-9b1b-e9dd30112a23}, ! Schedule Type Limits Name
  ,                                       ! Interpolate to Timestep
  6,                                      ! Hour 1
  0,                                      ! Minute 1
  0.050000000000000003,                   ! Value Until Time 1
  8,                                      ! Hour 2
  0,                                      ! Minute 2
  0.10000000000000001,                    ! Value Until Time 2
  14,                                     ! Hour 3
  0,                                      ! Minute 3
  0.5,                                    ! Value Until Time 3
  17,                                     ! Hour 4
  0,                                      ! Minute 4
  0.14999999999999999,                    ! Value Until Time 4
  24,                                     ! Hour 5
  0,                                      ! Minute 5
  0.050000000000000003;                   ! Value Until Time 5

OS:DesignSpecification:OutdoorAir,
  {42d54377-02c4-4afc-967c-e051d8803fa3}, !- Handle
  189.1-2009 - Office - BreakRoom - CZ1-3 Ventilation, !- Name
  Sum,                                    !- Outdoor Air Method
  0.007079211648,                         !- Outdoor Air Flow per Person {m3/s-person}
  ,                                       !- Outdoor Air Flow per Floor Area {m3/s-m2}
  ,                                       !- Outdoor Air Flow Rate {m3/s}
  ,                                       !- Outdoor Air Flow Air Changes per Hour {1/hr}
  ;                                       !- Outdoor Air Flow Rate Fraction Schedule Name

OS:People:Definition,
  {78142240-e0fa-4737-a6ef-638c858924d0}, !- Handle
  189.1-2009 - Office - BreakRoom - CZ1-3 People Definition, !- Name
  People/Area,                            !- Number of People Calculation Method
  ,                                       !- Number of People {people}
  0.538195520835486,                      !- People per Space Floor Area {person/m2}
  ,                                       !- Space Floor Area per Person {m2/person}
  0.3;                                    !- Fraction Radiant

OS:People,
  {5635cc9e-31c2-44b1-93b8-9edfea3232fb}, !- Handle
  189.1-2009 - Office - BreakRoom - CZ1-3 People, !- Name
  {78142240-e0fa-4737-a6ef-638c858924d0}, !- People Definition Name
  {2bd0fe1d-3f2c-454b-ba6d-d667670ae7f8}; !- Space or SpaceType Name

OS:Schedule:Ruleset,
  {50fe7ef4-c584-4c13-b974-13a1c65d4094}, ! Handle
  Office Misc Occ,                        ! Name
  {8e512b74-d12a-4ab1-9b1b-e9dd30112a23}, ! Schedule Type Limits Name
  {7f31187b-69ae-4ce3-8518-03ccf33d2565}, ! Default Day Schedule Name
  {4b00e040-b913-4490-a42a-30bdee7d9129}, ! Summer Design Day Schedule Name
  {3cbbc0c9-bce8-4b5a-9eed-24de4bd9b2c4}; ! Winter Design Day Schedule Name

OS:Schedule:Day,
  {7f31187b-69ae-4ce3-8518-03ccf33d2565}, ! Handle
  Office Bldg Occ Default Schedule 1,     ! Name
  {8e512b74-d12a-4ab1-9b1b-e9dd30112a23}, ! Schedule Type Limits Name
  ,                                       ! Interpolate to Timestep
  6,                                      !- Hour 1
  0,                                      !- Minute 1
  0,                                      !- Value Until Time 1
  7,                                      !- Hour 2
  0,                                      !- Minute 2
  0.100000001490116,                      !- Value Until Time 2
  8,                                      !- Hour 3
  0,                                      !- Minute 3
  0.200000002980232,                      !- Value Until Time 3
  20,                                     !- Hour 4
  0,                                      !- Minute 4
  0.400000005960464,                      !- Value Until Time 4
  22,                                     !- Hour 5
  0,                                      !- Minute 5
  0.100000001490116,                      !- Value Until Time 5
  24,                                     !- Hour 6
  0,                                      !- Minute 6
  0.0500000007450581;                     !- Value Until Time 6

OS:Schedule:Day,
  {4b00e040-b913-4490-a42a-30bdee7d9129}, ! Handle
  Office Bldg Occ Summer Design Day 1,    ! Name
  {8e512b74-d12a-4ab1-9b1b-e9dd30112a23}, ! Schedule Type Limits Name
  ,                                       ! Interpolate to Timestep
  6,                                      ! Hour 1
  0,                                      ! Minute 1
  0,                                      ! Value Until Time 1
  22,                                     ! Hour 2
  0,                                      ! Minute 2
  1,                                      ! Value Until Time 2
  24,                                     ! Hour 3
  0,                                      ! Minute 3
  0.050000000000000003;                   ! Value Until Time 3

OS:Schedule:Day,
  {3cbbc0c9-bce8-4b5a-9eed-24de4bd9b2c4}, ! Handle
  Office Bldg Occ Winter Design Day 1,    ! Name
  {8e512b74-d12a-4ab1-9b1b-e9dd30112a23}, ! Schedule Type Limits Name
  ,                                       ! Interpolate to Timestep
  24,                                     ! Hour 1
  0,                                      ! Minute 1
  0;                                      ! Value Until Time 1

OS:Schedule:Rule,
  {81ac8007-c931-45ee-beb0-28c174b7a34d}, ! Handle
  Office Misc Occ Rule 1,                 ! Name
  {50fe7ef4-c584-4c13-b974-13a1c65d4094}, ! Schedule Ruleset Name
  0,                                      ! Rule Order
  {a2b5ff07-74eb-4915-a529-c7aca21347a4}, ! Day Schedule Name
  Yes,                                    ! Apply Sunday
  No,                                     ! Apply Monday
  No,                                     ! Apply Tuesday
  No,                                     ! Apply Wednesday
  No,                                     ! Apply Thursday
  No,                                     ! Apply Friday
  No,                                     ! Apply Saturday
  ,                                       ! Apply Holiday
  DateRange,                              ! Date Specification Type
  1,                                      ! Start Month
  1,                                      ! Start Day
  12,                                     ! End Month
  31;                                     ! End Day

OS:Schedule:Day,
  {a2b5ff07-74eb-4915-a529-c7aca21347a4}, ! Handle
  Office Bldg Occ Rule 1 Day Schedule 1,  ! Name
  {8e512b74-d12a-4ab1-9b1b-e9dd30112a23}, ! Schedule Type Limits Name
  ,                                       ! Interpolate to Timestep
  24,                                     ! Hour 1
  0,                                      ! Minute 1
  0;                                      ! Value Until Time 1

OS:Schedule:Rule,
  {f524035f-8bf0-49bf-8f0e-66f98b5605d9}, ! Handle
  Office Misc Occ Rule 2,                 ! Name
  {50fe7ef4-c584-4c13-b974-13a1c65d4094}, ! Schedule Ruleset Name
  1,                                      ! Rule Order
  {6d792109-4e3e-4042-ab1a-b29b6095566a}, ! Day Schedule Name
  No,                                     ! Apply Sunday
  No,                                     ! Apply Monday
  No,                                     ! Apply Tuesday
  No,                                     ! Apply Wednesday
  No,                                     ! Apply Thursday
  No,                                     ! Apply Friday
  Yes,                                    ! Apply Saturday
  ,                                       ! Apply Holiday
  DateRange,                              ! Date Specification Type
  1,                                      ! Start Month
  1,                                      ! Start Day
  12,                                     ! End Month
  31;                                     ! End Day

OS:Schedule:Day,
  {6d792109-4e3e-4042-ab1a-b29b6095566a}, ! Handle
  Office Bldg Occ Rule 2 Day Schedule 1,  ! Name
  {8e512b74-d12a-4ab1-9b1b-e9dd30112a23}, ! Schedule Type Limits Name
  ,                                       ! Interpolate to Timestep
  6,                                      !- Hour 1
  0,                                      !- Minute 1
  0,                                      !- Value Until Time 1
  8,                                      !- Hour 2
  0,                                      !- Minute 2
  0.100000001490116,                      !- Value Until Time 2
  14,                                     !- Hour 3
  0,                                      !- Minute 3
  0.25,                                   !- Value Until Time 3
  17,                                     !- Hour 4
  0,                                      !- Minute 4
  0.100000001490116,                      !- Value Until Time 4
  24,                                     !- Hour 5
  0,                                      !- Minute 5
  0;                                      !- Value Until Time 5

OS:Schedule:Ruleset,
  {619a52f5-a1c2-42d2-9058-b3e7908cc155}, ! Handle
  Office Activity,                        ! Name
  {8d6625ad-95f0-44d3-b393-315cb5f0afc3}, ! Schedule Type Limits Name
  {f65f33b9-1b87-48e3-a52c-b76088ca8e65}, ! Default Day Schedule Name
  {b3b46d13-def2-4263-9064-cb005218e839}, ! Summer Design Day Schedule Name
  {77db949d-6d8f-41c2-bbc5-bc50c466e5c3}; ! Winter Design Day Schedule Name

OS:ScheduleTypeLimits,
  {8d6625ad-95f0-44d3-b393-315cb5f0afc3}, !- Handle
  ActivityLevel,                          !- Name
  0,                                      !- Lower Limit Value {BasedOnField A4}
  ,                                       !- Upper Limit Value {BasedOnField A4}
  Continuous,                             !- Numeric Type
  ActivityLevel;                          !- Unit Type

OS:Schedule:Day,
  {f65f33b9-1b87-48e3-a52c-b76088ca8e65}, ! Handle
  Office Activity Default Schedule,       ! Name
  {8d6625ad-95f0-44d3-b393-315cb5f0afc3}, ! Schedule Type Limits Name
  ,                                       ! Interpolate to Timestep
  24,                                     !- Hour 1
  0,                                      !- Minute 1
  132;                                    !- Value Until Time 1

OS:Schedule:Day,
  {b3b46d13-def2-4263-9064-cb005218e839}, ! Handle
  Office Activity Summer Design Day,      ! Name
  {8d6625ad-95f0-44d3-b393-315cb5f0afc3}, ! Schedule Type Limits Name
  ,                                       ! Interpolate to Timestep
  24,                                     !- Hour 1
  0,                                      !- Minute 1
  132;                                    !- Value Until Time 1

OS:Schedule:Day,
  {77db949d-6d8f-41c2-bbc5-bc50c466e5c3}, ! Handle
  Office Activity Winter Design Day,      ! Name
  {8d6625ad-95f0-44d3-b393-315cb5f0afc3}, ! Schedule Type Limits Name
  ,                                       ! Interpolate to Timestep
  24,                                     !- Hour 1
  0,                                      !- Minute 1
  132;                                    !- Value Until Time 1

OS:SpaceInfiltration:DesignFlowRate,
  {63eaefca-4945-4c3c-97ce-d9f65fe497e0}, !- Handle
  189.1-2009 - Office - BreakRoom - CZ1-3 Infiltration, !- Name
  {2bd0fe1d-3f2c-454b-ba6d-d667670ae7f8}, !- Space or SpaceType Name
  ,                                       !- Schedule Name
  Flow/ExteriorArea,                      !- Design Flow Rate Calculation Method
  ,                                       !- Design Flow Rate {m3/s}
  ,                                       !- Flow per Space Floor Area {m3/s-m2}
  0.00030226,                             !- Flow per Exterior Surface Area {m3/s-m2}
  ,                                       !- Air Changes per Hour {1/hr}
  ,                                       !- Constant Term Coefficient
  ,                                       !- Temperature Term Coefficient
  ,                                       !- Velocity Term Coefficient
  ;                                       !- Velocity Squared Term Coefficient

OS:Schedule:Ruleset,
  {76667f8b-3c6d-47e1-93c3-7cd8c636f322}, ! Handle
  Office Infil Quarter On,                ! Name
  {8e512b74-d12a-4ab1-9b1b-e9dd30112a23}, ! Schedule Type Limits Name
  {6dd66247-984f-4806-87ef-303c82245cff}, ! Default Day Schedule Name
  {753aa911-54df-46cb-b440-039f83cb3a97}, ! Summer Design Day Schedule Name
  {d8338d30-7c2c-4c7b-9b3b-6df8ffdc19b4}; ! Winter Design Day Schedule Name

OS:Schedule:Day,
  {6dd66247-984f-4806-87ef-303c82245cff}, ! Handle
  Office Infil Quarter On Default Schedule, ! Name
  {8e512b74-d12a-4ab1-9b1b-e9dd30112a23}, ! Schedule Type Limits Name
  ,                                       ! Interpolate to Timestep
  6,                                      !- Hour 1
  0,                                      !- Minute 1
  1,                                      !- Value Until Time 1
  22,                                     !- Hour 2
  0,                                      !- Minute 2
  0.25,                                   !- Value Until Time 2
  24,                                     !- Hour 3
  0,                                      !- Minute 3
  1;                                      !- Value Until Time 3

OS:Schedule:Day,
  {753aa911-54df-46cb-b440-039f83cb3a97}, ! Handle
  Office Infil Quarter On Summer Design Day, ! Name
  {8e512b74-d12a-4ab1-9b1b-e9dd30112a23}, ! Schedule Type Limits Name
  ,                                       ! Interpolate to Timestep
  6,                                      ! Hour 1
  0,                                      ! Minute 1
  1,                                      ! Value Until Time 1
  22,                                     ! Hour 2
  0,                                      ! Minute 2
  0.25,                                   ! Value Until Time 2
  24,                                     ! Hour 3
  0,                                      ! Minute 3
  1;                                      ! Value Until Time 3

OS:Schedule:Day,
  {d8338d30-7c2c-4c7b-9b3b-6df8ffdc19b4}, ! Handle
  Office Infil Quarter On Winter Design Day, ! Name
  {8e512b74-d12a-4ab1-9b1b-e9dd30112a23}, ! Schedule Type Limits Name
  ,                                       ! Interpolate to Timestep
  6,                                      ! Hour 1
  0,                                      ! Minute 1
  1,                                      ! Value Until Time 1
  18,                                     ! Hour 2
  0,                                      ! Minute 2
  0.25,                                   ! Value Until Time 2
  24,                                     ! Hour 3
  0,                                      ! Minute 3
  1;                                      ! Value Until Time 3

OS:Schedule:Rule,
  {04c2c3a0-af51-4c24-95de-e056f9d74ed9}, ! Handle
  Office Infil Quarter On Rule 1,         ! Name
  {76667f8b-3c6d-47e1-93c3-7cd8c636f322}, ! Schedule Ruleset Name
  0,                                      ! Rule Order
  {4aea247f-d8b3-466d-ab6f-9b5154a8e34c}, ! Day Schedule Name
  Yes,                                    ! Apply Sunday
  No,                                     ! Apply Monday
  No,                                     ! Apply Tuesday
  No,                                     ! Apply Wednesday
  No,                                     ! Apply Thursday
  No,                                     ! Apply Friday
  No,                                     ! Apply Saturday
  ,                                       ! Apply Holiday
  DateRange,                              ! Date Specification Type
  1,                                      ! Start Month
  1,                                      ! Start Day
  12,                                     ! End Month
  31;                                     ! End Day

OS:Schedule:Day,
  {4aea247f-d8b3-466d-ab6f-9b5154a8e34c}, ! Handle
  Office Infil Quarter On Rule 1 Day Schedule, ! Name
  {8e512b74-d12a-4ab1-9b1b-e9dd30112a23}, ! Schedule Type Limits Name
  ,                                       ! Interpolate to Timestep
  24,                                     ! Hour 1
  0,                                      ! Minute 1
  1;                                      ! Value Until Time 1

OS:Schedule:Rule,
  {c735906d-849f-4237-a149-b425cf9a072d}, ! Handle
  Office Infil Quarter On Rule 2,         ! Name
  {76667f8b-3c6d-47e1-93c3-7cd8c636f322}, ! Schedule Ruleset Name
  1,                                      ! Rule Order
  {a67669d2-8bcd-4841-9fcd-36d70c2861cc}, ! Day Schedule Name
  No,                                     ! Apply Sunday
  No,                                     ! Apply Monday
  No,                                     ! Apply Tuesday
  No,                                     ! Apply Wednesday
  No,                                     ! Apply Thursday
  No,                                     ! Apply Friday
  Yes,                                    ! Apply Saturday
  ,                                       ! Apply Holiday
  DateRange,                              ! Date Specification Type
  1,                                      ! Start Month
  1,                                      ! Start Day
  12,                                     ! End Month
  31;                                     ! End Day

OS:Schedule:Day,
  {a67669d2-8bcd-4841-9fcd-36d70c2861cc}, ! Handle
  Office Infil Quarter On Rule 2 Day Schedule, ! Name
  {8e512b74-d12a-4ab1-9b1b-e9dd30112a23}, ! Schedule Type Limits Name
  ,                                       ! Interpolate to Timestep
  6,                                      ! Hour 1
  0,                                      ! Minute 1
  1,                                      ! Value Until Time 1
  18,                                     ! Hour 2
  0,                                      ! Minute 2
  0.25,                                   ! Value Until Time 2
  24,                                     ! Hour 3
  0,                                      ! Minute 3
  1;                                      ! Value Until Time 3

OS:ElectricEquipment:Definition,
  {50601799-fcea-4d65-b1dd-1ded67f5ddee}, !- Handle
  189.1-2009 - Office - BreakRoom - CZ1-3 Electric Equipment Definition, !- Name
  Watts/Area,                             !- Design Level Calculation Method
  ,                                       !- Design Level {W}
  43.163280771006,                        !- Watts per Space Floor Area {W/m2}
  ;                                       !- Watts per Person {W/person}

OS:ElectricEquipment,
  {f85e631e-1ad8-4892-b9b3-cdd19ef53936}, !- Handle
  189.1-2009 - Office - BreakRoom - CZ1-3 Electric Equipment, !- Name
  {50601799-fcea-4d65-b1dd-1ded67f5ddee}, !- Electric Equipment Definition Name
  {2bd0fe1d-3f2c-454b-ba6d-d667670ae7f8}; !- Space or SpaceType Name

OS:Schedule:Ruleset,
  {faeb5799-20a9-447b-b6aa-dec955c1e72b}, ! Handle
  Office Bldg Equip,                      ! Name
  {8e512b74-d12a-4ab1-9b1b-e9dd30112a23}, ! Schedule Type Limits Name
  {8bb86d69-4ebe-44d5-8c43-5ab8b6ec8e0b}, ! Default Day Schedule Name
  {d85a1582-a77a-424f-998a-0bdcb0c7ea65}, ! Summer Design Day Schedule Name
  {9e31dda2-22d7-4c5b-aab2-1b11190017c1}; ! Winter Design Day Schedule Name

OS:Schedule:Day,
  {8bb86d69-4ebe-44d5-8c43-5ab8b6ec8e0b}, ! Handle
  Office Bldg Equip Default Schedule,     ! Name
  {8e512b74-d12a-4ab1-9b1b-e9dd30112a23}, ! Schedule Type Limits Name
  ,                                       ! Interpolate to Timestep
  8,                                      !- Hour 1
  0,                                      !- Minute 1
  0.4,                                    !- Value Until Time 1
  12,                                     !- Hour 2
  0,                                      !- Minute 2
  0.9,                                    !- Value Until Time 2
  13,                                     !- Hour 3
  0,                                      !- Minute 3
  0.8,                                    !- Value Until Time 3
  17,                                     !- Hour 4
  0,                                      !- Minute 4
  0.9,                                    !- Value Until Time 4
  18,                                     !- Hour 5
  0,                                      !- Minute 5
  0.8,                                    !- Value Until Time 5
  20,                                     !- Hour 6
  0,                                      !- Minute 6
  0.6,                                    !- Value Until Time 6
  22,                                     !- Hour 7
  0,                                      !- Minute 7
  0.5,                                    !- Value Until Time 7
  24,                                     !- Hour 8
  0,                                      !- Minute 8
  0.4;                                    !- Value Until Time 8

OS:Schedule:Day,
  {d85a1582-a77a-424f-998a-0bdcb0c7ea65}, ! Handle