
OS:Version,
  {c2d399ce-b3f0-4037-8eae-f7290eb06e17}, !- Handle
  1.4.0;                                  !- Version Identifier

OS:Construction,
  {999d4215-80aa-4281-bd9c-21ce3d6b7d12}, !- Handle
  ASHRAE 189.1-2009 AtticFloor ClimateZone 1-8, !- Name
  ,                                       !- Surface Rendering Name
  {51e7c4ee-c85d-4735-8fc6-c0dda73815ec}, !- Layer 1
  {955151fa-ffb0-4a24-a746-78a940e491bb}, !- Layer 2
  {51e7c4ee-c85d-4735-8fc6-c0dda73815ec}; !- Layer 3

OS:StandardsInformation:Construction,
  {49603a9a-cab9-4bba-99b5-6599046dec32}, !- Handle
  {999d4215-80aa-4281-bd9c-21ce3d6b7d12}, !- Construction Name
  AtticFloor,                             !- Intended Surface Type
  WoodFramed;                             !- Standards Construction Type

OS:Material,
  {51e7c4ee-c85d-4735-8fc6-c0dda73815ec}, !- Handle
  1/2IN Gypsum,                           !- Name
  Smooth,                                 !- Roughness
  0.0127,                                 !- Thickness {m}
  0.16,                                   !- Conductivity {W/m-K}
  784.9,                                  !- Density {kg/m3}
  830.000000000001,                       !- Specific Heat {J/kg-K}
  0.9,                                    !- Thermal Absorptance
  0.4,                                    !- Solar Absorptance
  0.4;                                    !- Visible Absorptance

OS:Material,
  {955151fa-ffb0-4a24-a746-78a940e491bb}, !- Handle
  AtticFloor Insulation,                  !- Name
  MediumRough,                            !- Roughness
  0.2379,                                 !- Thickness {m}
  0.049,                                  !- Conductivity {W/m-K}
  265,                                    !- Density {kg/m3}
  836.800000000001,                       !- Specific Heat {J/kg-K}
  0.9,                                    !- Thermal Absorptance
  0.7,                                    !- Solar Absorptance
  0.7;                                    !- Visible Absorptance

OS:Construction,
  {e6b3b624-c721-4206-9630-4e2bf4613329}, !- Handle
  ASHRAE 189.1-2009 ExtRoof IEAD ClimateZone 1, !- Name
  ,                                       !- Surface Rendering Name
  {059a9e1d-8fa3-46d9-9d65-2c7878aece55}, !- Layer 1
  {b4f571dc-02c3-4074-bada-52280bd0863c}, !- Layer 2
  {56ba8b04-3cf1-46a3-aa00-da0a962d25c9}; !- Layer 3

OS:StandardsInformation:Construction,
  {7daed8ad-3302-47a3-86a6-ed35a6701636}, !- Handle
  {e6b3b624-c721-4206-9630-4e2bf4613329}, !- Construction Name
  ExteriorRoof,                           !- Intended Surface Type
  IEAD;                                   !- Standards Construction Type

OS:Material,
  {059a9e1d-8fa3-46d9-9d65-2c7878aece55}, !- Handle
  Roof Membrane,                          !- Name
  VeryRough,                              !- Roughness
  0.0095,                                 !- Thickness {m}
  0.16,                                   !- Conductivity {W/m-K}
  1121.29,                                !- Density {kg/m3}
  1460,                                   !- Specific Heat {J/kg-K}
  0.9,                                    !- Thermal Absorptance
  0.7,                                    !- Solar Absorptance
  0.7;                                    !- Visible Absorptance

OS:Material,
  {b4f571dc-02c3-4074-bada-52280bd0863c}, !- Handle
  Roof Insulation [18],                   !- Name
  MediumRough,                            !- Roughness
  0.1693,                                 !- Thickness {m}
  0.049,                                  !- Conductivity {W/m-K}
  265,                                    !- Density {kg/m3}
  836.800000000001,                       !- Specific Heat {J/kg-K}
  0.9,                                    !- Thermal Absorptance
  0.7,                                    !- Solar Absorptance
  0.7;                                    !- Visible Absorptance

OS:Material,
  {56ba8b04-3cf1-46a3-aa00-da0a962d25c9}, !- Handle
  Metal Decking,                          !- Name
  MediumSmooth,                           !- Roughness
  0.0015,                                 !- Thickness {m}
  45.006,                                 !- Conductivity {W/m-K}
  7680,                                   !- Density {kg/m3}
  418.4,                                  !- Specific Heat {J/kg-K}
  0.9,                                    !- Thermal Absorptance
  0.6,                                    !- Solar Absorptance
  0.6;                                    !- Visible Absorptance

OS:Construction,
  {024bbb45-4301-452a-94e7-350581debcf2}, !- Handle
  ASHRAE 189.1-2009 ExtRoof IEAD ClimateZone 2-5, !- Name
  ,                                       !- Surface Rendering Name
  {059a9e1d-8fa3-46d9-9d65-2c7878aece55}, !- Layer 1
  {379470fb-08e0-40f6-89be-72e99a00ab13}, !- Layer 2
  {56ba8b04-3cf1-46a3-aa00-da0a962d25c9}; !- Layer 3

OS:StandardsInformation:Construction,
  {ce264f44-f67c-488d-a3c5-3561628a1775}, !- Handle
  {024bbb45-4301-452a-94e7-350581debcf2}, !- Construction Name
  ExteriorRoof,                           !- Intended Surface Type
  IEAD;                                   !- Standards Construction Type

OS:Material,
  {379470fb-08e0-40f6-89be-72e99a00ab13}, !- Handle
  Roof Insulation [21],                   !- Name
  MediumRough,                            !- Roughness
  0.2105,                                 !- Thickness {m}
  0.049,                                  !- Conductivity {W/m-K}
  265,                                    !- Density {kg/m3}
  836.800000000001,                       !- Specific Heat {J/kg-K}
  0.9,                                    !- Thermal Absorptance
  0.7,                                    !- Solar Absorptance
  0.7;                                    !- Visible Absorptance

OS:Construction,
  {c1ebd395-2ab3-49ef-9541-b41f5117a8a6}, !- Handle
  ASHRAE 189.1-2009 ExtRoof IEAD ClimateZone 6, !- Name
  ,                                       !- Surface Rendering Name
  {059a9e1d-8fa3-46d9-9d65-2c7878aece55}, !- Layer 1
  {96a3019d-be3c-44d0-b9c1-40d82236e5b9}, !- Layer 2
  {56ba8b04-3cf1-46a3-aa00-da0a962d25c9}; !- Layer 3

OS:StandardsInformation:Construction,
  {2c98645d-d799-49dc-9bae-4eb31b1ddcff}, !- Handle
  {c1ebd395-2ab3-49ef-9541-b41f5117a8a6}, !- Construction Name
  ExteriorRoof,                           !- Intended Surface Type
  IEAD;                                   !- Standards Construction Type

OS:Material,
  {96a3019d-be3c-44d0-b9c1-40d82236e5b9}, !- Handle
  Roof Insulation [24],                   !- Name
  MediumRough,                            !- Roughness
  0.260100000000001,                      !- Thickness {m}
  0.049,                                  !- Conductivity {W/m-K}
  265,                                    !- Density {kg/m3}
  836.800000000001,                       !- Specific Heat {J/kg-K}
  0.9,                                    !- Thermal Absorptance
  0.7,                                    !- Solar Absorptance
  0.7;                                    !- Visible Absorptance

OS:Construction,
  {51800ada-a798-48e2-84ca-4e782a3faf06}, !- Handle
  ASHRAE 189.1-2009 ExtRoof IEAD ClimateZone 7-8, !- Name
  ,                                       !- Surface Rendering Name
  {059a9e1d-8fa3-46d9-9d65-2c7878aece55}, !- Layer 1
  {571758d4-66b6-4112-896e-8c0f70f8c6d6}, !- Layer 2
  {56ba8b04-3cf1-46a3-aa00-da0a962d25c9}; !- Layer 3

OS:StandardsInformation:Construction,
  {a4f07e6c-11ad-456f-aa11-44124147af6f}, !- Handle
  {51800ada-a798-48e2-84ca-4e782a3faf06}, !- Construction Name
  ExteriorRoof,                           !- Intended Surface Type
  IEAD;                                   !- Standards Construction Type

OS:Material,
  {571758d4-66b6-4112-896e-8c0f70f8c6d6}, !- Handle
  Roof Insulation [26],                   !- Name
  MediumRough,                            !- Roughness
  0.2941,                                 !- Thickness {m}
  0.049,                                  !- Conductivity {W/m-K}
  265,                                    !- Density {kg/m3}
  836.800000000001,                       !- Specific Heat {J/kg-K}
  0.9,                                    !- Thermal Absorptance
  0.7,                                    !- Solar Absorptance
  0.7;                                    !- Visible Absorptance

OS:Construction,
  {e434486b-3474-4854-8e85-18f5bd6d7060}, !- Handle
  ASHRAE 189.1-2009 ExtRoof Metal ClimateZone 1, !- Name
  ,                                       !- Surface Rendering Name
  {8b51117f-a57b-4c58-9f3c-23e8481df379}, !- Layer 1
  {03705058-8bab-437f-9b64-d010a5e169c8}, !- Layer 2
  {56ba8b04-3cf1-46a3-aa00-da0a962d25c9}; !- Layer 3

OS:StandardsInformation:Construction,
  {96e5de66-3662-42d8-9379-449af3111c12}, !- Handle
  {e434486b-3474-4854-8e85-18f5bd6d7060}, !- Construction Name
  ExteriorRoof,                           !- Intended Surface Type
  Metal;                                  !- Standards Construction Type

OS:Material,
  {8b51117f-a57b-4c58-9f3c-23e8481df379}, !- Handle
  Metal Roofing,                          !- Name
  MediumSmooth,                           !- Roughness
  0.0015,                                 !- Thickness {m}
  45.006,                                 !- Conductivity {W/m-K}
  7680,                                   !- Density {kg/m3}
  418.4,                                  !- Specific Heat {J/kg-K}
  0.9,                                    !- Thermal Absorptance
  0.6,                                    !- Solar Absorptance
  0.6;                                    !- Visible Absorptance

OS:Material,
  {03705058-8bab-437f-9b64-d010a5e169c8}, !- Handle
  Roof Insulation [19],                   !- Name
  MediumRough,                            !- Roughness
  0.1868,                                 !- Thickness {m}
  0.049,                                  !- Conductivity {W/m-K}
  265,                                    !- Density {kg/m3}
  836.800000000001,                       !- Specific Heat {J/kg-K}
  0.9,                                    !- Thermal Absorptance
  0.7,                                    !- Solar Absorptance
  0.7;                                    !- Visible Absorptance

OS:Construction,
  {66bea4fa-706a-4198-bdeb-b2d2449ec2fe}, !- Handle
  ASHRAE 189.1-2009 ExtRoof Metal ClimateZone 2-5, !- Name
  ,                                       !- Surface Rendering Name
  {8b51117f-a57b-4c58-9f3c-23e8481df379}, !- Layer 1
  {a3bc9a64-c1ca-4678-ac91-1e3c469bd3db}, !- Layer 2
  {56ba8b04-3cf1-46a3-aa00-da0a962d25c9}; !- Layer 3

OS:StandardsInformation:Construction,
  {26ba48c4-8d77-46a5-ba61-1d28f7708f65}, !- Handle
  {66bea4fa-706a-4198-bdeb-b2d2449ec2fe}, !- Construction Name
  ExteriorRoof,                           !- Intended Surface Type
  Metal;                                  !- Standards Construction Type

OS:Material,
  {a3bc9a64-c1ca-4678-ac91-1e3c469bd3db}, !- Handle
  Roof Insulation [22],                   !- Name
  MediumRough,                            !- Roughness
  0.2358,                                 !- Thickness {m}
  0.049,                                  !- Conductivity {W/m-K}
  265,                                    !- Density {kg/m3}
  836.800000000001,                       !- Specific Heat {J/kg-K}
  0.9,                                    !- Thermal Absorptance
  0.7,                                    !- Solar Absorptance
  0.7;                                    !- Visible Absorptance

OS:Construction,
  {f886ee8b-b86b-4174-a7b2-87c1bbba7753}, !- Handle
  ASHRAE 189.1-2009 ExtRoof Metal ClimateZone 6, !- Name
  ,                                       !- Surface Rendering Name
  {8b51117f-a57b-4c58-9f3c-23e8481df379}, !- Layer 1
  {1b390b87-f726-4cf4-be22-a5669242ec74}, !- Layer 2
  {56ba8b04-3cf1-46a3-aa00-da0a962d25c9}; !- Layer 3

OS:StandardsInformation:Construction,
  {3679a002-1c5d-4533-9109-9eb0685353df}, !- Handle
  {f886ee8b-b86b-4174-a7b2-87c1bbba7753}, !- Construction Name
  ExteriorRoof,                           !- Intended Surface Type
  Metal;                                  !- Standards Construction Type

OS:Material,
  {1b390b87-f726-4cf4-be22-a5669242ec74}, !- Handle
  Roof Insulation [25],                   !- Name
  MediumRough,                            !- Roughness
  0.263,                                  !- Thickness {m}
  0.049,                                  !- Conductivity {W/m-K}
  265,                                    !- Density {kg/m3}
  836.800000000001,                       !- Specific Heat {J/kg-K}
  0.9,                                    !- Thermal Absorptance
  0.7,                                    !- Solar Absorptance
  0.7;                                    !- Visible Absorptance

OS:Construction,
  {4e709013-1bc9-4ecb-8a86-eddc5c2ef08a}, !- Handle
  ASHRAE 189.1-2009 ExtRoof Metal ClimateZone 7-8, !- Name
  ,                                       !- Surface Rendering Name
  {8b51117f-a57b-4c58-9f3c-23e8481df379}, !- Layer 1
  {0d13b6f9-d167-45cd-a0b0-79f342747cb1}, !- Layer 2
  {56ba8b04-3cf1-46a3-aa00-da0a962d25c9}; !- Layer 3

OS:StandardsInformation:Construction,
  {b1df48b5-8014-4a9d-992a-ee8f41377412}, !- Handle
  {4e709013-1bc9-4ecb-8a86-eddc5c2ef08a}, !- Construction Name
  ExteriorRoof,                           !- Intended Surface Type
  Metal;                                  !- Standards Construction Type

OS:Material,
  {0d13b6f9-d167-45cd-a0b0-79f342747cb1}, !- Handle
  Roof Insulation [27],                   !- Name
  MediumRough,                            !- Roughness
  0.297000000000001,                      !- Thickness {m}
  0.049,                                  !- Conductivity {W/m-K}
  265,                                    !- Density {kg/m3}
  836.800000000001,                       !- Specific Heat {J/kg-K}
  0.9,                                    !- Thermal Absorptance
  0.7,                                    !- Solar Absorptance
  0.7;                                    !- Visible Absorptance

OS:Construction,
  {5aa6f6fb-5a53-4939-ac39-0b42d5a267d4}, !- Handle
  ASHRAE 189.1-2009 ExtWall Mass ClimateZone 1, !- Name
  ,                                       !- Surface Rendering Name
  {62673862-7649-47b7-b6ab-4848f5b43c76}, !- Layer 1
  {1cb0643a-54d7-4553-bf0b-40d0803488f9}, !- Layer 2
  {cd5434a3-d709-4671-a637-39bae1acfb8a}, !- Layer 3
  {51e7c4ee-c85d-4735-8fc6-c0dda73815ec}; !- Layer 4

OS:StandardsInformation:Construction,
  {9794575d-d18b-45ef-b840-edc15a90d0ed}, !- Handle
  {5aa6f6fb-5a53-4939-ac39-0b42d5a267d4}, !- Construction Name
  ExteriorWall,                           !- Intended Surface Type
  Mass;                                   !- Standards Construction Type

OS:Material,
  {62673862-7649-47b7-b6ab-4848f5b43c76}, !- Handle
  1IN Stucco,                             !- Name
  Smooth,                                 !- Roughness
  0.0253,                                 !- Thickness {m}
  0.691799999999999,                      !- Conductivity {W/m-K}
  1858,                                   !- Density {kg/m3}
  836.999999999999,                       !- Specific Heat {J/kg-K}
  0.9,                                    !- Thermal Absorptance
  0.92,                                   !- Solar Absorptance
  0.92;                                   !- Visible Absorptance

OS:Material,
  {1cb0643a-54d7-4553-bf0b-40d0803488f9}, !- Handle
  8IN Concrete HW,                        !- Name
  MediumRough,                            !- Roughness
  0.2033,                                 !- Thickness {m}
  1.72959999999999,                       !- Conductivity {W/m-K}
  2242.99999999999,                       !- Density {kg/m3}
  836.999999999999,                       !- Specific Heat {J/kg-K}
  0.9,                                    !- Thermal Absorptance
  0.65,                                   !- Solar Absorptance
  0.65;                                   !- Visible Absorptance

OS:Material,
  {cd5434a3-d709-4671-a637-39bae1acfb8a}, !- Handle
  Wall Insulation [31],                   !- Name
  MediumRough,                            !- Roughness
  0.0337000000000001,                     !- Thickness {m}
  0.0432,                                 !- Conductivity {W/m-K}
  91,                                     !- Density {kg/m3}
  836.999999999999,                       !- Specific Heat {J/kg-K}
  0.9,                                    !- Thermal Absorptance
  0.5,                                    !- Solar Absorptance
  0.5;                                    !- Visible Absorptance

OS:Construction,
  {d7f77ae8-aa4d-4d5c-8a9d-0306bda866bd}, !- Handle
  ASHRAE 189.1-2009 ExtWall Mass ClimateZone 2, !- Name
  ,                                       !- Surface Rendering Name
  {62673862-7649-47b7-b6ab-4848f5b43c76}, !- Layer 1
  {1cb0643a-54d7-4553-bf0b-40d0803488f9}, !- Layer 2
  {99c66736-88f3-4424-ab9c-ca22908b9a11}, !- Layer 3
  {51e7c4ee-c85d-4735-8fc6-c0dda73815ec}; !- Layer 4

OS:StandardsInformation:Construction,
  {14cf6b2a-a5e8-4e5d-abad-5f3935e21775}, !- Handle
  {d7f77ae8-aa4d-4d5c-8a9d-0306bda866bd}, !- Construction Name
  ExteriorWall,                           !- Intended Surface Type
  Mass;                                   !- Standards Construction Type

OS:Material,
  {99c66736-88f3-4424-ab9c-ca22908b9a11}, !- Handle
  Wall Insulation [35],                   !- Name
  MediumRough,                            !- Roughness
  0.0452,                                 !- Thickness {m}
  0.0432,                                 !- Conductivity {W/m-K}
  91,                                     !- Density {kg/m3}
  836.999999999999,                       !- Specific Heat {J/kg-K}
  0.9,                                    !- Thermal Absorptance
  0.5,                                    !- Solar Absorptance
  0.5;                                    !- Visible Absorptance

OS:Construction,
  {647e8a06-b04a-4ef3-a8ef-829349431723}, !- Handle
  ASHRAE 189.1-2009 ExtWall Mass ClimateZone 3, !- Name
  ,                                       !- Surface Rendering Name
  {62673862-7649-47b7-b6ab-4848f5b43c76}, !- Layer 1
  {1cb0643a-54d7-4553-bf0b-40d0803488f9}, !- Layer 2
  {fb873232-9f37-4944-9f24-fd93aeaeb3d5}, !- Layer 3
  {51e7c4ee-c85d-4735-8fc6-c0dda73815ec}; !- Layer 4

OS:StandardsInformation:Construction,
  {4fca74a2-7f0d-4aba-9a0a-a1ad2b161a51}, !- Handle
  {647e8a06-b04a-4ef3-a8ef-829349431723}, !- Construction Name
  ExteriorWall,                           !- Intended Surface Type
  Mass;                                   !- Standards Construction Type

OS:Material,
  {fb873232-9f37-4944-9f24-fd93aeaeb3d5}, !- Handle
  Wall Insulation [36],                   !- Name
  MediumRough,                            !- Roughness
  0.0565999999999999,                     !- Thickness {m}
  0.0432,                                 !- Conductivity {W/m-K}
  91,                                     !- Density {kg/m3}
  836.999999999999,                       !- Specific Heat {J/kg-K}
  0.9,                                    !- Thermal Absorptance
  0.5,                                    !- Solar Absorptance
  0.5;                                    !- Visible Absorptance

OS:Construction,
  {f1587266-8894-4588-a88f-6274a6be4f75}, !- Handle
  ASHRAE 189.1-2009 ExtWall Mass ClimateZone 4, !- Name
  ,                                       !- Surface Rendering Name
  {62673862-7649-47b7-b6ab-4848f5b43c76}, !- Layer 1
  {1cb0643a-54d7-4553-bf0b-40d0803488f9}, !- Layer 2
  {6da0b2e9-e4c8-42e9-b6bf-5bbecd68b3ce}, !- Layer 3
  {51e7c4ee-c85d-4735-8fc6-c0dda73815ec}; !- Layer 4

OS:StandardsInformation:Construction,
  {f2fc8894-8b0b-4cc2-bff7-4f01282c8dec}, !- Handle
  {f1587266-8894-4588-a88f-6274a6be4f75}, !- Construction Name
  ExteriorWall,                           !- Intended Surface Type
  Mass;                                   !- Standards Construction Type

OS:Material,
  {6da0b2e9-e4c8-42e9-b6bf-5bbecd68b3ce}, !- Handle
  Wall Insulation [37],                   !- Name
  MediumRough,                            !- Roughness
  0.0680999999999999,                     !- Thickness {m}
  0.0432,                                 !- Conductivity {W/m-K}
  91,                                     !- Density {kg/m3}
  836.999999999999,                       !- Specific Heat {J/kg-K}
  0.9,                                    !- Thermal Absorptance
  0.5,                                    !- Solar Absorptance
  0.5;                                    !- Visible Absorptance

OS:Construction,
  {a9ded126-cba2-41b7-9a99-9fa0193ae3a7}, !- Handle
  ASHRAE 189.1-2009 ExtWall Mass ClimateZone 5, !- Name
  ,                                       !- Surface Rendering Name
  {62673862-7649-47b7-b6ab-4848f5b43c76}, !- Layer 1
  {1cb0643a-54d7-4553-bf0b-40d0803488f9}, !- Layer 2
  {a75978a8-3954-4d93-a0fd-cfb5d8397770}, !- Layer 3
  {51e7c4ee-c85d-4735-8fc6-c0dda73815ec}; !- Layer 4

OS:StandardsInformation:Construction,
  {064411ed-134b-4889-9cea-6386264875cb}, !- Handle
  {a9ded126-cba2-41b7-9a99-9fa0193ae3a7}, !- Construction Name
  ExteriorWall,                           !- Intended Surface Type
  Mass;                                   !- Standards Construction Type

OS:Material,
  {a75978a8-3954-4d93-a0fd-cfb5d8397770}, !- Handle
  Wall Insulation [40],                   !- Name
  MediumRough,                            !- Roughness
  0.0793999999999999,                     !- Thickness {m}
  0.0432,                                 !- Conductivity {W/m-K}
  91,                                     !- Density {kg/m3}
  836.999999999999,                       !- Specific Heat {J/kg-K}
  0.9,                                    !- Thermal Absorptance
  0.5,                                    !- Solar Absorptance
  0.5;                                    !- Visible Absorptance

OS:Construction,
  {13ae9eb4-b191-45ed-a7bb-eb65fc219970}, !- Handle
  ASHRAE 189.1-2009 ExtWall Mass ClimateZone 6, !- Name
  ,                                       !- Surface Rendering Name
  {62673862-7649-47b7-b6ab-4848f5b43c76}, !- Layer 1
  {1cb0643a-54d7-4553-bf0b-40d0803488f9}, !- Layer 2
  {0b17ff38-76cc-4832-9cce-02c0672e4425}, !- Layer 3
  {51e7c4ee-c85d-4735-8fc6-c0dda73815ec}; !- Layer 4

OS:StandardsInformation:Construction,
  {b0db33c9-e7a2-45a8-8445-03b56070368b}, !- Handle
  {13ae9eb4-b191-45ed-a7bb-eb65fc219970}, !- Construction Name
  ExteriorWall,                           !- Intended Surface Type
  Mass;                                   !- Standards Construction Type

OS:Material,
  {0b17ff38-76cc-4832-9cce-02c0672e4425}, !- Handle
  Wall Insulation [42],                   !- Name
  MediumRough,                            !- Roughness
  0.0913999999999999,                     !- Thickness {m}
  0.0432,                                 !- Conductivity {W/m-K}
  91,                                     !- Density {kg/m3}
  836.999999999999,                       !- Specific Heat {J/kg-K}
  0.9,                                    !- Thermal Absorptance
  0.5,                                    !- Solar Absorptance
  0.5;                                    !- Visible Absorptance

OS:Construction,
  {3ea3919d-66cc-4639-a36e-796429ae2498}, !- Handle
  ASHRAE 189.1-2009 ExtWall Mass ClimateZone 7-8, !- Name
  ,                                       !- Surface Rendering Name
  {62673862-7649-47b7-b6ab-4848f5b43c76}, !- Layer 1
  {1cb0643a-54d7-4553-bf0b-40d0803488f9}, !- Layer 2
  {1700c07a-baca-479c-9ab0-88ff616c4dff}, !- Layer 3
  {51e7c4ee-c85d-4735-8fc6-c0dda73815ec}; !- Layer 4

OS:StandardsInformation:Construction,
  {10f18fc3-65d6-4033-b2e7-09019171ac5d}, !- Handle
  {3ea3919d-66cc-4639-a36e-796429ae2498}, !- Construction Name
  ExteriorWall,                           !- Intended Surface Type
  Mass;                                   !- Standards Construction Type

OS:Material,
  {1700c07a-baca-479c-9ab0-88ff616c4dff}, !- Handle
  Wall Insulation [44],                   !- Name
  MediumRough,                            !- Roughness
  0.1104,                                 !- Thickness {m}
  0.0432,                                 !- Conductivity {W/m-K}
  91,                                     !- Density {kg/m3}
  836.999999999999,                       !- Specific Heat {J/kg-K}
  0.9,                                    !- Thermal Absorptance
  0.5,                                    !- Solar Absorptance
  0.5;                                    !- Visible Absorptance

OS:Construction,
  {dccce483-b952-47e3-8a07-019e0cf609c3}, !- Handle
  ASHRAE 189.1-2009 ExtWall Mass ClimateZone alt-res 1, !- Name
  ,                                       !- Surface Rendering Name
  {62673862-7649-47b7-b6ab-4848f5b43c76}, !- Layer 1
  {1cb0643a-54d7-4553-bf0b-40d0803488f9}, !- Layer 2
  {99c66736-88f3-4424-ab9c-ca22908b9a11}, !- Layer 3
  {51e7c4ee-c85d-4735-8fc6-c0dda73815ec}; !- Layer 4

OS:StandardsInformation:Construction,
  {0cc972bf-5d38-4141-970c-9c7e0205bc08}, !- Handle
  {dccce483-b952-47e3-8a07-019e0cf609c3}, !- Construction Name
  ExteriorWall,                           !- Intended Surface Type
  Mass;                                   !- Standards Construction Type

OS:Construction,
  {b8c00335-98d2-45ad-8205-56c8b1b27a5f}, !- Handle
  ASHRAE 189.1-2009 ExtWall Mass ClimateZone alt-res 2, !- Name
  ,                                       !- Surface Rendering Name
  {62673862-7649-47b7-b6ab-4848f5b43c76}, !- Layer 1
  {1cb0643a-54d7-4553-bf0b-40d0803488f9}, !- Layer 2
  {fb873232-9f37-4944-9f24-fd93aeaeb3d5}, !- Layer 3
  {51e7c4ee-c85d-4735-8fc6-c0dda73815ec}; !- Layer 4

OS:StandardsInformation:Construction,
  {1557578b-ca63-45cd-908d-ed4947b5b11d}, !- Handle
  {b8c00335-98d2-45ad-8205-56c8b1b27a5f}, !- Construction Name
  ExteriorWall,                           !- Intended Surface Type
  Mass;                                   !- Standards Construction Type

OS:Construction,
  {ad198d85-fedf-47a2-bf83-6b3431d43d33}, !- Handle
  ASHRAE 189.1-2009 ExtWall Mass ClimateZone alt-res 3, !- Name
  ,                                       !- Surface Rendering Name
  {62673862-7649-47b7-b6ab-4848f5b43c76}, !- Layer 1
  {1cb0643a-54d7-4553-bf0b-40d0803488f9}, !- Layer 2
  {6da0b2e9-e4c8-42e9-b6bf-5bbecd68b3ce}, !- Layer 3
  {51e7c4ee-c85d-4735-8fc6-c0dda73815ec}; !- Layer 4

OS:StandardsInformation:Construction,
  {da52223d-89f3-4214-b2ea-c27b0ffa0fe5}, !- Handle
  {ad198d85-fedf-47a2-bf83-6b3431d43d33}, !- Construction Name
  ExteriorWall,                           !- Intended Surface Type
  Mass;                                   !- Standards Construction Type

OS:Construction,
  {a78f3c35-cd88-41e7-b95a-48cb9c061104}, !- Handle
  ASHRAE 189.1-2009 ExtWall Mass ClimateZone alt-res 4, !- Name
  ,                                       !- Surface Rendering Name
  {62673862-7649-47b7-b6ab-4848f5b43c76}, !- Layer 1
  {1cb0643a-54d7-4553-bf0b-40d0803488f9}, !- Layer 2
  {a75978a8-3954-4d93-a0fd-cfb5d8397770}, !- Layer 3
  {51e7c4ee-c85d-4735-8fc6-c0dda73815ec}; !- Layer 4

OS:StandardsInformation:Construction,
  {ca6b1a80-9f68-4253-bcca-5518ada60482}, !- Handle
  {a78f3c35-cd88-41e7-b95a-48cb9c061104}, !- Construction Name
  ExteriorWall,                           !- Intended Surface Type
  Mass;                                   !- Standards Construction Type

OS:Construction,
  {22af656e-c38f-46a6-a3e0-447d46507272}, !- Handle
  ASHRAE 189.1-2009 ExtWall Mass ClimateZone alt-res 5, !- Name
  ,                                       !- Surface Rendering Name
  {62673862-7649-47b7-b6ab-4848f5b43c76}, !- Layer 1
  {1cb0643a-54d7-4553-bf0b-40d0803488f9}, !- Layer 2
  {0b17ff38-76cc-4832-9cce-02c0672e4425}, !- Layer 3
  {51e7c4ee-c85d-4735-8fc6-c0dda73815ec}; !- Layer 4

OS:StandardsInformation:Construction,
  {98a1675e-4a89-48c1-b89c-ad415a13573e}, !- Handle
  {22af656e-c38f-46a6-a3e0-447d46507272}, !- Construction Name
  ExteriorWall,                           !- Intended Surface Type
  Mass;                                   !- Standards Construction Type

OS:Construction,
  {6c96d86e-382c-4313-9724-c63f79b8ea82}, !- Handle
  ASHRAE 189.1-2009 ExtWall Mass ClimateZone alt-res 6, !- Name
  ,                                       !- Surface Rendering Name
  {62673862-7649-47b7-b6ab-4848f5b43c76}, !- Layer 1
  {1cb0643a-54d7-4553-bf0b-40d0803488f9}, !- Layer 2
  {1700c07a-baca-479c-9ab0-88ff616c4dff}, !- Layer 3
  {51e7c4ee-c85d-4735-8fc6-c0dda73815ec}; !- Layer 4

OS:StandardsInformation:Construction,
  {1e1e8f68-d8f9-4a2c-bedb-ecf45267fec6}, !- Handle
  {6c96d86e-382c-4313-9724-c63f79b8ea82}, !- Construction Name
  ExteriorWall,                           !- Intended Surface Type
  Mass;                                   !- Standards Construction Type

OS:Construction,
  {3d3631c1-62a9-4409-a8b0-abf24ebbfc9b}, !- Handle
  ASHRAE 189.1-2009 ExtWall Mass ClimateZone alt-res 7, !- Name
  ,                                       !- Surface Rendering Name
  {62673862-7649-47b7-b6ab-4848f5b43c76}, !- Layer 1
  {1cb0643a-54d7-4553-bf0b-40d0803488f9}, !- Layer 2
  {1700c07a-baca-479c-9ab0-88ff616c4dff}, !- Layer 3
  {51e7c4ee-c85d-4735-8fc6-c0dda73815ec}; !- Layer 4

OS:StandardsInformation:Construction,
  {261e4135-9c0a-4da4-91fc-493f33a21578}, !- Handle
  {3d3631c1-62a9-4409-a8b0-abf24ebbfc9b}, !- Construction Name
  ExteriorWall,                           !- Intended Surface Type
  Mass;                                   !- Standards Construction Type

OS:Construction,
  {547af7ea-14b2-4259-8018-922dcb4ce22e}, !- Handle
  ASHRAE 189.1-2009 ExtWall Mass ClimateZone alt-res 8, !- Name
  ,                                       !- Surface Rendering Name
  {62673862-7649-47b7-b6ab-4848f5b43c76}, !- Layer 1
  {1cb0643a-54d7-4553-bf0b-40d0803488f9}, !- Layer 2
  {cc66ad12-d23a-4845-9c5a-b1954f0dd90e}, !- Layer 3
  {51e7c4ee-c85d-4735-8fc6-c0dda73815ec}; !- Layer 4

OS:StandardsInformation:Construction,
  {7930b3d0-8ba0-4ff6-b6eb-9b6879f3edf4}, !- Handle
  {547af7ea-14b2-4259-8018-922dcb4ce22e}, !- Construction Name