
OS:Version,
  {e788ffa6-ce37-40db-88d3-bda0e6fabb10}, !- Handle
  1.3.3;                                  !- Version Identifier

OS:Construction,
  {32372c47-d9e7-4d77-9e58-bd28149022c3}, !- Handle
  ASHRAE 189.1-2009 AtticFloor ClimateZone 1-8, !- Name
  ,                                       !- Surface Rendering Name
  {03da27c5-b149-435d-b9ca-be42650fe01b}, !- Layer 1
  {d889ac35-4fbf-4ce8-977b-523667db1056}, !- Layer 2
  {03da27c5-b149-435d-b9ca-be42650fe01b}; !- Layer 3

OS:StandardsInformation:Construction,
  {70178257-8927-4e35-880b-7df0dcdf1145}, !- Handle
  {32372c47-d9e7-4d77-9e58-bd28149022c3}, !- Construction Name
  AtticFloor,                             !- Intended Surface Type
  WoodFramed;                             !- Standards Construction Type

OS:Material,
  {03da27c5-b149-435d-b9ca-be42650fe01b}, !- Handle
  1/2IN Gypsum,                           !- Name
  Smooth,                                 !- Roughness
  0.0127,                                 !- Thickness {m}
  0.16,                                   !- Conductivity {W/m-K}
  784.9,                                  !- Density {kg/m3}
  830.000000000001,                       !- Specific Heat {J/kg-K}
  0.9,                                    !- Thermal Absorptance
  0.4,                                    !- Solar Absorptance
  0.4;                                    !- Visible Absorptance

OS:Material,
  {d889ac35-4fbf-4ce8-977b-523667db1056}, !- Handle
  AtticFloor Insulation,                  !- Name
  MediumRough,                            !- Roughness
  0.2379,                                 !- Thickness {m}
  0.049,                                  !- Conductivity {W/m-K}
  265,                                    !- Density {kg/m3}
  836.800000000001,                       !- Specific Heat {J/kg-K}
  0.9,                                    !- Thermal Absorptance
  0.7,                                    !- Solar Absorptance
  0.7;                                    !- Visible Absorptance

OS:Construction,
  {a20d95c3-f357-48fe-89cf-a5d47085b948}, !- Handle
  ASHRAE 189.1-2009 ExtRoof IEAD ClimateZone 1, !- Name
  ,                                       !- Surface Rendering Name
  {10bb17d7-5231-4f0d-a5bf-73f1eddb1602}, !- Layer 1
  {e0d9f35d-dca6-4d71-abc8-473a79be506c}, !- Layer 2
  {c6b0462f-c665-497d-99cc-2eedae7f1f97}; !- Layer 3

OS:StandardsInformation:Construction,
  {23c59634-22cc-4839-9ccb-ec1ca099dace}, !- Handle
  {a20d95c3-f357-48fe-89cf-a5d47085b948}, !- Construction Name
  ExteriorRoof,                           !- Intended Surface Type
  IEAD;                                   !- Standards Construction Type

OS:Material,
  {10bb17d7-5231-4f0d-a5bf-73f1eddb1602}, !- Handle
  Roof Membrane,                          !- Name
  VeryRough,                              !- Roughness
  0.0095,                                 !- Thickness {m}
  0.16,                                   !- Conductivity {W/m-K}
  1121.29,                                !- Density {kg/m3}
  1460,                                   !- Specific Heat {J/kg-K}
  0.9,                                    !- Thermal Absorptance
  0.7,                                    !- Solar Absorptance
  0.7;                                    !- Visible Absorptance

OS:Material,
  {e0d9f35d-dca6-4d71-abc8-473a79be506c}, !- Handle
  Roof Insulation [18],                   !- Name
  MediumRough,                            !- Roughness
  0.1693,                                 !- Thickness {m}
  0.049,                                  !- Conductivity {W/m-K}
  265,                                    !- Density {kg/m3}
  836.800000000001,                       !- Specific Heat {J/kg-K}
  0.9,                                    !- Thermal Absorptance
  0.7,                                    !- Solar Absorptance
  0.7;                                    !- Visible Absorptance

OS:Material,
  {c6b0462f-c665-497d-99cc-2eedae7f1f97}, !- Handle
  Metal Decking,                          !- Name
  MediumSmooth,                           !- Roughness
  0.0015,                                 !- Thickness {m}
  45.006,                                 !- Conductivity {W/m-K}
  7680,                                   !- Density {kg/m3}
  418.4,                                  !- Specific Heat {J/kg-K}
  0.9,                                    !- Thermal Absorptance
  0.6,                                    !- Solar Absorptance
  0.6;                                    !- Visible Absorptance

OS:Construction,
  {cac7495a-74b1-4e30-8b6b-295762200bca}, !- Handle
  ASHRAE 189.1-2009 ExtRoof IEAD ClimateZone 2-5, !- Name
  ,                                       !- Surface Rendering Name
  {10bb17d7-5231-4f0d-a5bf-73f1eddb1602}, !- Layer 1
  {37e9b62e-b24f-4830-a161-3b423a72a32c}, !- Layer 2
  {c6b0462f-c665-497d-99cc-2eedae7f1f97}; !- Layer 3

OS:StandardsInformation:Construction,
  {c0a312ba-f8af-4743-a609-0bb8886f71f7}, !- Handle
  {cac7495a-74b1-4e30-8b6b-295762200bca}, !- Construction Name
  ExteriorRoof,                           !- Intended Surface Type
  IEAD;                                   !- Standards Construction Type

OS:Material,
  {37e9b62e-b24f-4830-a161-3b423a72a32c}, !- Handle
  Roof Insulation [21],                   !- Name
  MediumRough,                            !- Roughness
  0.2105,                                 !- Thickness {m}
  0.049,                                  !- Conductivity {W/m-K}
  265,                                    !- Density {kg/m3}
  836.800000000001,                       !- Specific Heat {J/kg-K}
  0.9,                                    !- Thermal Absorptance
  0.7,                                    !- Solar Absorptance
  0.7;                                    !- Visible Absorptance

OS:Construction,
  {f939ff8d-9b91-40ab-9cab-dc08066a0141}, !- Handle
  ASHRAE 189.1-2009 ExtRoof IEAD ClimateZone 6, !- Name
  ,                                       !- Surface Rendering Name
  {10bb17d7-5231-4f0d-a5bf-73f1eddb1602}, !- Layer 1
  {54f03634-2fbb-41b3-8bbe-c4c9a40c09e6}, !- Layer 2
  {c6b0462f-c665-497d-99cc-2eedae7f1f97}; !- Layer 3

OS:StandardsInformation:Construction,
  {2bac7647-8bdf-4481-82f6-ad71e7bd2e5b}, !- Handle
  {f939ff8d-9b91-40ab-9cab-dc08066a0141}, !- Construction Name
  ExteriorRoof,                           !- Intended Surface Type
  IEAD;                                   !- Standards Construction Type

OS:Material,
  {54f03634-2fbb-41b3-8bbe-c4c9a40c09e6}, !- Handle
  Roof Insulation [24],                   !- Name
  MediumRough,                            !- Roughness
  0.260100000000001,                      !- Thickness {m}
  0.049,                                  !- Conductivity {W/m-K}
  265,                                    !- Density {kg/m3}
  836.800000000001,                       !- Specific Heat {J/kg-K}
  0.9,                                    !- Thermal Absorptance
  0.7,                                    !- Solar Absorptance
  0.7;                                    !- Visible Absorptance

OS:Construction,
  {aeb6761d-1f97-465e-9f42-ad45ebd12a79}, !- Handle
  ASHRAE 189.1-2009 ExtRoof IEAD ClimateZone 7-8, !- Name
  ,                                       !- Surface Rendering Name
  {10bb17d7-5231-4f0d-a5bf-73f1eddb1602}, !- Layer 1
  {fb4e8c59-81db-4d38-b290-f6bc8804f4e3}, !- Layer 2
  {c6b0462f-c665-497d-99cc-2eedae7f1f97}; !- Layer 3

OS:StandardsInformation:Construction,
  {2addf5b6-eee0-452b-95b7-2d04da4b3f83}, !- Handle
  {aeb6761d-1f97-465e-9f42-ad45ebd12a79}, !- Construction Name
  ExteriorRoof,                           !- Intended Surface Type
  IEAD;                                   !- Standards Construction Type

OS:Material,
  {fb4e8c59-81db-4d38-b290-f6bc8804f4e3}, !- Handle
  Roof Insulation [26],                   !- Name
  MediumRough,                            !- Roughness
  0.2941,                                 !- Thickness {m}
  0.049,                                  !- Conductivity {W/m-K}
  265,                                    !- Density {kg/m3}
  836.800000000001,                       !- Specific Heat {J/kg-K}
  0.9,                                    !- Thermal Absorptance
  0.7,                                    !- Solar Absorptance
  0.7;                                    !- Visible Absorptance

OS:Construction,
  {34610766-e27d-42d9-98f7-e3eeeddace10}, !- Handle
  ASHRAE 189.1-2009 ExtRoof Metal ClimateZone 1, !- Name
  ,                                       !- Surface Rendering Name
  {7d552620-a46b-486e-9a24-1f7fbfa2d1c7}, !- Layer 1
  {82abcfbb-deb8-4211-9c67-ba4695d531a4}, !- Layer 2
  {c6b0462f-c665-497d-99cc-2eedae7f1f97}; !- Layer 3

OS:StandardsInformation:Construction,
  {c6cc4e42-1f3a-4feb-9fda-2d6578eae380}, !- Handle
  {34610766-e27d-42d9-98f7-e3eeeddace10}, !- Construction Name
  ExteriorRoof,                           !- Intended Surface Type
  Metal;                                  !- Standards Construction Type

OS:Material,
  {7d552620-a46b-486e-9a24-1f7fbfa2d1c7}, !- Handle
  Metal Roofing,                          !- Name
  MediumSmooth,                           !- Roughness
  0.0015,                                 !- Thickness {m}
  45.006,                                 !- Conductivity {W/m-K}
  7680,                                   !- Density {kg/m3}
  418.4,                                  !- Specific Heat {J/kg-K}
  0.9,                                    !- Thermal Absorptance
  0.6,                                    !- Solar Absorptance
  0.6;                                    !- Visible Absorptance

OS:Material,
  {82abcfbb-deb8-4211-9c67-ba4695d531a4}, !- Handle
  Roof Insulation [19],                   !- Name
  MediumRough,                            !- Roughness
  0.1868,                                 !- Thickness {m}
  0.049,                                  !- Conductivity {W/m-K}
  265,                                    !- Density {kg/m3}
  836.800000000001,                       !- Specific Heat {J/kg-K}
  0.9,                                    !- Thermal Absorptance
  0.7,                                    !- Solar Absorptance
  0.7;                                    !- Visible Absorptance

OS:Construction,
  {9b74023c-4f68-4db7-8d31-e1d658c912c6}, !- Handle
  ASHRAE 189.1-2009 ExtRoof Metal ClimateZone 2-5, !- Name
  ,                                       !- Surface Rendering Name
  {7d552620-a46b-486e-9a24-1f7fbfa2d1c7}, !- Layer 1
  {9ccc00a3-f628-4246-9df1-bee538426a6e}, !- Layer 2
  {c6b0462f-c665-497d-99cc-2eedae7f1f97}; !- Layer 3

OS:StandardsInformation:Construction,
  {d9bfc45f-4891-416e-b02b-910749c9224b}, !- Handle
  {9b74023c-4f68-4db7-8d31-e1d658c912c6}, !- Construction Name
  ExteriorRoof,                           !- Intended Surface Type
  Metal;                                  !- Standards Construction Type

OS:Material,
  {9ccc00a3-f628-4246-9df1-bee538426a6e}, !- Handle
  Roof Insulation [22],                   !- Name
  MediumRough,                            !- Roughness
  0.2358,                                 !- Thickness {m}
  0.049,                                  !- Conductivity {W/m-K}
  265,                                    !- Density {kg/m3}
  836.800000000001,                       !- Specific Heat {J/kg-K}
  0.9,                                    !- Thermal Absorptance
  0.7,                                    !- Solar Absorptance
  0.7;                                    !- Visible Absorptance

OS:Construction,
  {1299d5b0-f570-4602-b54b-4f44dc2042c3}, !- Handle
  ASHRAE 189.1-2009 ExtRoof Metal ClimateZone 6, !- Name
  ,                                       !- Surface Rendering Name
  {7d552620-a46b-486e-9a24-1f7fbfa2d1c7}, !- Layer 1
  {c17c25a7-1dd1-4f64-9d7a-948c4e361163}, !- Layer 2
  {c6b0462f-c665-497d-99cc-2eedae7f1f97}; !- Layer 3

OS:StandardsInformation:Construction,
  {411b9723-7041-4d05-bd48-d6f26961a123}, !- Handle
  {1299d5b0-f570-4602-b54b-4f44dc2042c3}, !- Construction Name
  ExteriorRoof,                           !- Intended Surface Type
  Metal;                                  !- Standards Construction Type

OS:Material,
  {c17c25a7-1dd1-4f64-9d7a-948c4e361163}, !- Handle
  Roof Insulation [25],                   !- Name
  MediumRough,                            !- Roughness
  0.263,                                  !- Thickness {m}
  0.049,                                  !- Conductivity {W/m-K}
  265,                                    !- Density {kg/m3}
  836.800000000001,                       !- Specific Heat {J/kg-K}
  0.9,                                    !- Thermal Absorptance
  0.7,                                    !- Solar Absorptance
  0.7;                                    !- Visible Absorptance

OS:Construction,
  {3f5108b1-0d37-4c8f-82f7-75f242cf7928}, !- Handle
  ASHRAE 189.1-2009 ExtRoof Metal ClimateZone 7-8, !- Name
  ,                                       !- Surface Rendering Name
  {7d552620-a46b-486e-9a24-1f7fbfa2d1c7}, !- Layer 1
  {b48f4eff-01e7-44f4-a26e-89001a85f618}, !- Layer 2
  {c6b0462f-c665-497d-99cc-2eedae7f1f97}; !- Layer 3

OS:StandardsInformation:Construction,
  {cbcd9bac-43ed-44e7-8aa1-7e656e28fd5a}, !- Handle
  {3f5108b1-0d37-4c8f-82f7-75f242cf7928}, !- Construction Name
  ExteriorRoof,                           !- Intended Surface Type
  Metal;                                  !- Standards Construction Type

OS:Material,
  {b48f4eff-01e7-44f4-a26e-89001a85f618}, !- Handle
  Roof Insulation [27],                   !- Name
  MediumRough,                            !- Roughness
  0.297000000000001,                      !- Thickness {m}
  0.049,                                  !- Conductivity {W/m-K}
  265,                                    !- Density {kg/m3}
  836.800000000001,                       !- Specific Heat {J/kg-K}
  0.9,                                    !- Thermal Absorptance
  0.7,                                    !- Solar Absorptance
  0.7;                                    !- Visible Absorptance

OS:Construction,
  {15e7011b-8a76-42b8-9c6a-cba21042002c}, !- Handle
  ASHRAE 189.1-2009 ExtWall Mass ClimateZone 1, !- Name
  ,                                       !- Surface Rendering Name
  {256fee94-ccb8-46a1-b0aa-9b3b96286d0e}, !- Layer 1
  {db7d2880-2f04-48e7-a1ab-eb5914ff8091}, !- Layer 2
  {0b7eafe7-28f1-4ebe-9157-6b24037784d5}, !- Layer 3
  {03da27c5-b149-435d-b9ca-be42650fe01b}; !- Layer 4

OS:StandardsInformation:Construction,
  {c14078fa-5fc5-4c24-920d-af8a30ef31cf}, !- Handle
  {15e7011b-8a76-42b8-9c6a-cba21042002c}, !- Construction Name
  ExteriorWall,                           !- Intended Surface Type
  Mass;                                   !- Standards Construction Type

OS:Material,
  {256fee94-ccb8-46a1-b0aa-9b3b96286d0e}, !- Handle
  1IN Stucco,                             !- Name
  Smooth,                                 !- Roughness
  0.0253,                                 !- Thickness {m}
  0.691799999999999,                      !- Conductivity {W/m-K}
  1858,                                   !- Density {kg/m3}
  836.999999999999,                       !- Specific Heat {J/kg-K}
  0.9,                                    !- Thermal Absorptance
  0.92,                                   !- Solar Absorptance
  0.92;                                   !- Visible Absorptance

OS:Material,
  {db7d2880-2f04-48e7-a1ab-eb5914ff8091}, !- Handle
  8IN Concrete HW,                        !- Name
  MediumRough,                            !- Roughness
  0.2033,                                 !- Thickness {m}
  1.72959999999999,                       !- Conductivity {W/m-K}
  2242.99999999999,                       !- Density {kg/m3}
  836.999999999999,                       !- Specific Heat {J/kg-K}
  0.9,                                    !- Thermal Absorptance
  0.65,                                   !- Solar Absorptance
  0.65;                                   !- Visible Absorptance

OS:Material,
  {0b7eafe7-28f1-4ebe-9157-6b24037784d5}, !- Handle
  Wall Insulation [31],                   !- Name
  MediumRough,                            !- Roughness
  0.0337000000000001,                     !- Thickness {m}
  0.0432,                                 !- Conductivity {W/m-K}
  91,                                     !- Density {kg/m3}
  836.999999999999,                       !- Specific Heat {J/kg-K}
  0.9,                                    !- Thermal Absorptance
  0.5,                                    !- Solar Absorptance
  0.5;                                    !- Visible Absorptance

OS:Construction,
  {bb29376d-fca4-499c-b0cd-f7af7aec562d}, !- Handle
  ASHRAE 189.1-2009 ExtWall Mass ClimateZone 2, !- Name
  ,                                       !- Surface Rendering Name
  {256fee94-ccb8-46a1-b0aa-9b3b96286d0e}, !- Layer 1
  {db7d2880-2f04-48e7-a1ab-eb5914ff8091}, !- Layer 2
  {65ac6582-cb63-4ab9-90f4-671ed060c5f9}, !- Layer 3
  {03da27c5-b149-435d-b9ca-be42650fe01b}; !- Layer 4

OS:StandardsInformation:Construction,
  {a2c90bde-bfd0-4296-a79b-0341cec054a3}, !- Handle
  {bb29376d-fca4-499c-b0cd-f7af7aec562d}, !- Construction Name
  ExteriorWall,                           !- Intended Surface Type
  Mass;                                   !- Standards Construction Type

OS:Material,
  {65ac6582-cb63-4ab9-90f4-671ed060c5f9}, !- Handle
  Wall Insulation [35],                   !- Name
  MediumRough,                            !- Roughness
  0.0452,                                 !- Thickness {m}
  0.0432,                                 !- Conductivity {W/m-K}
  91,                                     !- Density {kg/m3}
  836.999999999999,                       !- Specific Heat {J/kg-K}
  0.9,                                    !- Thermal Absorptance
  0.5,                                    !- Solar Absorptance
  0.5;                                    !- Visible Absorptance

OS:Construction,
  {9a9d3dd9-2c2c-40a2-b106-057ddd10b766}, !- Handle
  ASHRAE 189.1-2009 ExtWall Mass ClimateZone 3, !- Name
  ,                                       !- Surface Rendering Name
  {256fee94-ccb8-46a1-b0aa-9b3b96286d0e}, !- Layer 1
  {db7d2880-2f04-48e7-a1ab-eb5914ff8091}, !- Layer 2
  {03b2fff2-0b6e-4895-ba1a-1606dc3fcabd}, !- Layer 3
  {03da27c5-b149-435d-b9ca-be42650fe01b}; !- Layer 4

OS:StandardsInformation:Construction,
  {5d8d98a5-9f63-4171-a999-555bdd409ab8}, !- Handle
  {9a9d3dd9-2c2c-40a2-b106-057ddd10b766}, !- Construction Name
  ExteriorWall,                           !- Intended Surface Type
  Mass;                                   !- Standards Construction Type

OS:Material,
  {03b2fff2-0b6e-4895-ba1a-1606dc3fcabd}, !- Handle
  Wall Insulation [36],                   !- Name
  MediumRough,                            !- Roughness
  0.0565999999999999,                     !- Thickness {m}
  0.0432,                                 !- Conductivity {W/m-K}
  91,                                     !- Density {kg/m3}
  836.999999999999,                       !- Specific Heat {J/kg-K}
  0.9,                                    !- Thermal Absorptance
  0.5,                                    !- Solar Absorptance
  0.5;                                    !- Visible Absorptance

OS:Construction,
  {1986a248-d7b8-459c-8d83-4043fa6b15f8}, !- Handle
  ASHRAE 189.1-2009 ExtWall Mass ClimateZone 4, !- Name
  ,                                       !- Surface Rendering Name
  {256fee94-ccb8-46a1-b0aa-9b3b96286d0e}, !- Layer 1
  {db7d2880-2f04-48e7-a1ab-eb5914ff8091}, !- Layer 2
  {52b5cb77-410c-4dd2-948b-1d8d4e01aa3c}, !- Layer 3
  {03da27c5-b149-435d-b9ca-be42650fe01b}; !- Layer 4

OS:StandardsInformation:Construction,
  {868936b2-3353-4aa0-bbe2-24ca7be92608}, !- Handle
  {1986a248-d7b8-459c-8d83-4043fa6b15f8}, !- Construction Name
  ExteriorWall,                           !- Intended Surface Type
  Mass;                                   !- Standards Construction Type

OS:Material,
  {52b5cb77-410c-4dd2-948b-1d8d4e01aa3c}, !- Handle
  Wall Insulation [37],                   !- Name
  MediumRough,                            !- Roughness
  0.0680999999999999,                     !- Thickness {m}
  0.0432,                                 !- Conductivity {W/m-K}
  91,                                     !- Density {kg/m3}
  836.999999999999,                       !- Specific Heat {J/kg-K}
  0.9,                                    !- Thermal Absorptance
  0.5,                                    !- Solar Absorptance
  0.5;                                    !- Visible Absorptance

OS:Construction,
  {de6b363f-13f3-4434-be3a-75c5120fe661}, !- Handle
  ASHRAE 189.1-2009 ExtWall Mass ClimateZone 5, !- Name
  ,                                       !- Surface Rendering Name
  {256fee94-ccb8-46a1-b0aa-9b3b96286d0e}, !- Layer 1
  {db7d2880-2f04-48e7-a1ab-eb5914ff8091}, !- Layer 2
  {078d1086-0926-492e-b143-4771c4c8f40c}, !- Layer 3
  {03da27c5-b149-435d-b9ca-be42650fe01b}; !- Layer 4

OS:StandardsInformation:Construction,
  {3946859d-5961-43c0-a302-5ee79dc4f912}, !- Handle
  {de6b363f-13f3-4434-be3a-75c5120fe661}, !- Construction Name
  ExteriorWall,                           !- Intended Surface Type
  Mass;                                   !- Standards Construction Type

OS:Material,
  {078d1086-0926-492e-b143-4771c4c8f40c}, !- Handle
  Wall Insulation [40],                   !- Name
  MediumRough,                            !- Roughness
  0.0793999999999999,                     !- Thickness {m}
  0.0432,                                 !- Conductivity {W/m-K}
  91,                                     !- Density {kg/m3}
  836.999999999999,                       !- Specific Heat {J/kg-K}
  0.9,                                    !- Thermal Absorptance
  0.5,                                    !- Solar Absorptance
  0.5;                                    !- Visible Absorptance

OS:Construction,
  {110c656f-ddc3-4b67-a654-d806b3803731}, !- Handle
  ASHRAE 189.1-2009 ExtWall Mass ClimateZone 6, !- Name
  ,                                       !- Surface Rendering Name
  {256fee94-ccb8-46a1-b0aa-9b3b96286d0e}, !- Layer 1
  {db7d2880-2f04-48e7-a1ab-eb5914ff8091}, !- Layer 2
  {3113d5e2-e997-4b78-a4ab-68c0c55c6e29}, !- Layer 3
  {03da27c5-b149-435d-b9ca-be42650fe01b}; !- Layer 4

OS:StandardsInformation:Construction,
  {9d2ae3cf-47f3-4b3a-9561-b576438fbb2b}, !- Handle
  {110c656f-ddc3-4b67-a654-d806b3803731}, !- Construction Name
  ExteriorWall,                           !- Intended Surface Type
  Mass;                                   !- Standards Construction Type

OS:Material,
  {3113d5e2-e997-4b78-a4ab-68c0c55c6e29}, !- Handle
  Wall Insulation [42],                   !- Name
  MediumRough,                            !- Roughness
  0.0913999999999999,                     !- Thickness {m}
  0.0432,                                 !- Conductivity {W/m-K}
  91,                                     !- Density {kg/m3}
  836.999999999999,                       !- Specific Heat {J/kg-K}
  0.9,                                    !- Thermal Absorptance
  0.5,                                    !- Solar Absorptance
  0.5;                                    !- Visible Absorptance

OS:Construction,
  {6bc1c2c5-4e7d-40ac-b8dc-c967a1a340a8}, !- Handle
  ASHRAE 189.1-2009 ExtWall Mass ClimateZone 7-8, !- Name
  ,                                       !- Surface Rendering Name
  {256fee94-ccb8-46a1-b0aa-9b3b96286d0e}, !- Layer 1
  {db7d2880-2f04-48e7-a1ab-eb5914ff8091}, !- Layer 2
  {7a537f04-6a01-40f6-a225-0f10179af44b}, !- Layer 3
  {03da27c5-b149-435d-b9ca-be42650fe01b}; !- Layer 4

OS:StandardsInformation:Construction,
  {9724f5c8-17e6-4ec1-8273-6e1ac31ea39b}, !- Handle
  {6bc1c2c5-4e7d-40ac-b8dc-c967a1a340a8}, !- Construction Name
  ExteriorWall,                           !- Intended Surface Type
  Mass;                                   !- Standards Construction Type

OS:Material,
  {7a537f04-6a01-40f6-a225-0f10179af44b}, !- Handle
  Wall Insulation [44],                   !- Name
  MediumRough,                            !- Roughness
  0.1104,                                 !- Thickness {m}
  0.0432,                                 !- Conductivity {W/m-K}
  91,                                     !- Density {kg/m3}
  836.999999999999,                       !- Specific Heat {J/kg-K}
  0.9,                                    !- Thermal Absorptance
  0.5,                                    !- Solar Absorptance
  0.5;                                    !- Visible Absorptance

OS:Construction,
  {2de4f1ce-1261-4092-b4d4-70213e418efd}, !- Handle
  ASHRAE 189.1-2009 ExtWall Mass ClimateZone alt-res 1, !- Name
  ,                                       !- Surface Rendering Name
  {256fee94-ccb8-46a1-b0aa-9b3b96286d0e}, !- Layer 1
  {db7d2880-2f04-48e7-a1ab-eb5914ff8091}, !- Layer 2
  {65ac6582-cb63-4ab9-90f4-671ed060c5f9}, !- Layer 3
  {03da27c5-b149-435d-b9ca-be42650fe01b}; !- Layer 4

OS:StandardsInformation:Construction,
  {a4251daf-4abd-4252-9987-43e9c87d296e}, !- Handle
  {2de4f1ce-1261-4092-b4d4-70213e418efd}, !- Construction Name
  ExteriorWall,                           !- Intended Surface Type
  Mass;                                   !- Standards Construction Type

OS:Construction,
  {b7bd701c-4aa2-453a-acc6-ec435d8c7714}, !- Handle
  ASHRAE 189.1-2009 ExtWall Mass ClimateZone alt-res 2, !- Name
  ,                                       !- Surface Rendering Name
  {256fee94-ccb8-46a1-b0aa-9b3b96286d0e}, !- Layer 1
  {db7d2880-2f04-48e7-a1ab-eb5914ff8091}, !- Layer 2
  {03b2fff2-0b6e-4895-ba1a-1606dc3fcabd}, !- Layer 3
  {03da27c5-b149-435d-b9ca-be42650fe01b}; !- Layer 4

OS:StandardsInformation:Construction,
  {ea8cd37d-7ba2-4553-9879-47f9c335ea69}, !- Handle
  {b7bd701c-4aa2-453a-acc6-ec435d8c7714}, !- Construction Name
  ExteriorWall,                           !- Intended Surface Type
  Mass;                                   !- Standards Construction Type

OS:Construction,
  {c0ef9c4d-1470-4837-b567-e848187f7b39}, !- Handle
  ASHRAE 189.1-2009 ExtWall Mass ClimateZone alt-res 3, !- Name
  ,                                       !- Surface Rendering Name
  {256fee94-ccb8-46a1-b0aa-9b3b96286d0e}, !- Layer 1
  {db7d2880-2f04-48e7-a1ab-eb5914ff8091}, !- Layer 2
  {52b5cb77-410c-4dd2-948b-1d8d4e01aa3c}, !- Layer 3
  {03da27c5-b149-435d-b9ca-be42650fe01b}; !- Layer 4

OS:StandardsInformation:Construction,
  {293275ca-8145-4ebd-b770-e7d6e8c9971b}, !- Handle
  {c0ef9c4d-1470-4837-b567-e848187f7b39}, !- Construction Name
  ExteriorWall,                           !- Intended Surface Type
  Mass;                                   !- Standards Construction Type

OS:Construction,
  {0686beda-824a-44ca-ad30-851245692f51}, !- Handle
  ASHRAE 189.1-2009 ExtWall Mass ClimateZone alt-res 4, !- Name
  ,                                       !- Surface Rendering Name
  {256fee94-ccb8-46a1-b0aa-9b3b96286d0e}, !- Layer 1
  {db7d2880-2f04-48e7-a1ab-eb5914ff8091}, !- Layer 2
  {078d1086-0926-492e-b143-4771c4c8f40c}, !- Layer 3
  {03da27c5-b149-435d-b9ca-be42650fe01b}; !- Layer 4

OS:StandardsInformation:Construction,
  {709d2b4d-0dc4-446c-907c-16c6f70a754a}, !- Handle
  {0686beda-824a-44ca-ad30-851245692f51}, !- Construction Name
  ExteriorWall,                           !- Intended Surface Type
  Mass;                                   !- Standards Construction Type

OS:Construction,
  {8b273d8f-117c-4071-be25-4fb8edca5add}, !- Handle
  ASHRAE 189.1-2009 ExtWall Mass ClimateZone alt-res 5, !- Name
  ,                                       !- Surface Rendering Name
  {256fee94-ccb8-46a1-b0aa-9b3b96286d0e}, !- Layer 1
  {db7d2880-2f04-48e7-a1ab-eb5914ff8091}, !- Layer 2
  {3113d5e2-e997-4b78-a4ab-68c0c55c6e29}, !- Layer 3
  {03da27c5-b149-435d-b9ca-be42650fe01b}; !- Layer 4

OS:StandardsInformation:Construction,
  {5ecf847e-3bea-44fe-a8f5-d7be78964044}, !- Handle
  {8b273d8f-117c-4071-be25-4fb8edca5add}, !- Construction Name
  ExteriorWall,                           !- Intended Surface Type
  Mass;                                   !- Standards Construction Type

OS:Construction,
  {ef73755f-bd1f-40c7-907a-fff5244c1437}, !- Handle
  ASHRAE 189.1-2009 ExtWall Mass ClimateZone alt-res 6, !- Name
  ,                                       !- Surface Rendering Name
  {256fee94-ccb8-46a1-b0aa-9b3b96286d0e}, !- Layer 1
  {db7d2880-2f04-48e7-a1ab-eb5914ff8091}, !- Layer 2
  {7a537f04-6a01-40f6-a225-0f10179af44b}, !- Layer 3
  {03da27c5-b149-435d-b9ca-be42650fe01b}; !- Layer 4

OS:StandardsInformation:Construction,
  {30ffd987-c020-4ae2-ad8c-4ce30022bce9}, !- Handle
  {ef73755f-bd1f-40c7-907a-fff5244c1437}, !- Construction Name
  ExteriorWall,                           !- Intended Surface Type
  Mass;                                   !- Standards Construction Type

OS:Construction,
  {f88e1ade-b92c-43f0-b26a-4ff63702b947}, !- Handle
  ASHRAE 189.1-2009 ExtWall Mass ClimateZone alt-res 7, !- Name
  ,                                       !- Surface Rendering Name
  {256fee94-ccb8-46a1-b0aa-9b3b96286d0e}, !- Layer 1
  {db7d2880-2f04-48e7-a1ab-eb5914ff8091}, !- Layer 2
  {7a537f04-6a01-40f6-a225-0f10179af44b}, !- Layer 3
  {03da27c5-b149-435d-b9ca-be42650fe01b}; !- Layer 4

OS:StandardsInformation:Construction,
  {e9b403d5-48bb-4d82-a3be-d46a9924cb83}, !- Handle
  {f88e1ade-b92c-43f0-b26a-4ff63702b947}, !- Construction Name
  ExteriorWall,                           !- Intended Surface Type
  Mass;                                   !- Standards Construction Type

OS:Construction,
  {dedb6187-1491-476c-9020-7af5139d9270}, !- Handle
  ASHRAE 189.1-2009 ExtWall Mass ClimateZone alt-res 8, !- Name
  ,                                       !- Surface Rendering Name
  {256fee94-ccb8-46a1-b0aa-9b3b96286d0e}, !- Layer 1
  {db7d2880-2f04-48e7-a1ab-eb5914ff8091}, !- Layer 2
  {9db3d534-cbd5-4ac6-85a0-ee30281a1792}, !- Layer 3
  {03da27c5-b149-435d-b9ca-be42650fe01b}; !- Layer 4

OS:StandardsInformation:Construction,
  {13b97e2f-9d7d-45b0-84c6-8f9412484258}, !- Handle
  {dedb6187-1491-476c-9020-7af5139d9270}, !- Construction Name