
OS:Version,
  {e293891b-98b6-4665-a2ae-8e63be80a677}, !- Handle
  1.2.3;                                  !- Version Identifier

OS:Construction,
  {8899bf8e-e9c7-42eb-ac2a-3a1d0fe233f0}, !- Handle
  ASHRAE 189.1-2009 AtticFloor ClimateZone 1-8, !- Name
  ,                                       !- Surface Rendering Name
  {ea2a2ace-13bf-421c-87ed-3bd4941439ab}, !- Layer 1
  {6e6646cf-e4e2-4cb1-9632-8eeba861679c}, !- Layer 2
  {ea2a2ace-13bf-421c-87ed-3bd4941439ab}; !- Layer 3

OS:StandardsInformation:Construction,
  {5efe2964-07b5-4690-8956-bb1b4bb997e9}, !- Handle
  {8899bf8e-e9c7-42eb-ac2a-3a1d0fe233f0}, !- Construction Name
  AtticFloor,                             !- Intended Surface Type
  WoodFramed;                             !- Standards Construction Type

OS:Material,
  {ea2a2ace-13bf-421c-87ed-3bd4941439ab}, !- Handle
  1/2IN Gypsum,                           !- Name
  Smooth,                                 !- Roughness
  0.0127,                                 !- Thickness {m}
  0.16,                                   !- Conductivity {W/m-K}
  784.9,                                  !- Density {kg/m3}
  830.000000000001,                       !- Specific Heat {J/kg-K}
  0.9,                                    !- Thermal Absorptance
  0.92,                                   !- Solar Absorptance
  0.92;                                   !- Visible Absorptance

OS:Material,
  {6e6646cf-e4e2-4cb1-9632-8eeba861679c}, !- Handle
  AtticFloor Insulation,                  !- Name
  MediumRough,                            !- Roughness
  0.2379,                                 !- Thickness {m}
  0.049,                                  !- Conductivity {W/m-K}
  265,                                    !- Density {kg/m3}
  836.800000000001,                       !- Specific Heat {J/kg-K}
  0.9,                                    !- Thermal Absorptance
  0.7,                                    !- Solar Absorptance
  0.7;                                    !- Visible Absorptance

OS:Construction,
  {6140b648-abee-45e1-a7cf-ca0de9c1d1e2}, !- Handle
  ASHRAE 189.1-2009 ExtRoof IEAD ClimateZone 1, !- Name
  ,                                       !- Surface Rendering Name
  {994c1fe3-9678-40fc-860e-d640900ae7f1}, !- Layer 1
  {044933fa-3c49-4553-b29e-6b3663b78865}, !- Layer 2
  {cbb6c54e-12aa-4295-8cfe-d6b2f4afcaa2}; !- Layer 3

OS:StandardsInformation:Construction,
  {35d41a5a-545c-4fba-bd7d-109d16de0000}, !- Handle
  {6140b648-abee-45e1-a7cf-ca0de9c1d1e2}, !- Construction Name
  ExteriorRoof,                           !- Intended Surface Type
  IEAD;                                   !- Standards Construction Type

OS:Material,
  {994c1fe3-9678-40fc-860e-d640900ae7f1}, !- Handle
  Roof Membrane,                          !- Name
  VeryRough,                              !- Roughness
  0.0095,                                 !- Thickness {m}
  0.16,                                   !- Conductivity {W/m-K}
  1121.29,                                !- Density {kg/m3}
  1460,                                   !- Specific Heat {J/kg-K}
  0.9,                                    !- Thermal Absorptance
  0.7,                                    !- Solar Absorptance
  0.7;                                    !- Visible Absorptance

OS:Material,
  {044933fa-3c49-4553-b29e-6b3663b78865}, !- Handle
  Roof Insulation [18],                   !- Name
  MediumRough,                            !- Roughness
  0.1693,                                 !- Thickness {m}
  0.049,                                  !- Conductivity {W/m-K}
  265,                                    !- Density {kg/m3}
  836.800000000001,                       !- Specific Heat {J/kg-K}
  0.9,                                    !- Thermal Absorptance
  0.7,                                    !- Solar Absorptance
  0.7;                                    !- Visible Absorptance

OS:Material,
  {cbb6c54e-12aa-4295-8cfe-d6b2f4afcaa2}, !- Handle
  Metal Decking,                          !- Name
  MediumSmooth,                           !- Roughness
  0.0015,                                 !- Thickness {m}
  45.006,                                 !- Conductivity {W/m-K}
  7680,                                   !- Density {kg/m3}
  418.4,                                  !- Specific Heat {J/kg-K}
  0.9,                                    !- Thermal Absorptance
  0.7,                                    !- Solar Absorptance
  0.3;                                    !- Visible Absorptance

OS:Construction,
  {e72765e4-5111-48f2-86d4-2a5c89e048ef}, !- Handle
  ASHRAE 189.1-2009 ExtRoof IEAD ClimateZone 2-5, !- Name
  ,                                       !- Surface Rendering Name
  {994c1fe3-9678-40fc-860e-d640900ae7f1}, !- Layer 1
  {3b81477a-6a4e-4620-a89c-4a636db7de39}, !- Layer 2
  {cbb6c54e-12aa-4295-8cfe-d6b2f4afcaa2}; !- Layer 3

OS:StandardsInformation:Construction,
  {dda70a63-e4aa-4ce1-b15e-0f2bc3d008ed}, !- Handle
  {e72765e4-5111-48f2-86d4-2a5c89e048ef}, !- Construction Name
  ExteriorRoof,                           !- Intended Surface Type
  IEAD;                                   !- Standards Construction Type

OS:Material,
  {3b81477a-6a4e-4620-a89c-4a636db7de39}, !- Handle
  Roof Insulation [21],                   !- Name
  MediumRough,                            !- Roughness
  0.2105,                                 !- Thickness {m}
  0.049,                                  !- Conductivity {W/m-K}
  265,                                    !- Density {kg/m3}
  836.800000000001,                       !- Specific Heat {J/kg-K}
  0.9,                                    !- Thermal Absorptance
  0.7,                                    !- Solar Absorptance
  0.7;                                    !- Visible Absorptance

OS:Construction,
  {5ed26530-0d9d-42d7-aee4-2793d5a30f3f}, !- Handle
  ASHRAE 189.1-2009 ExtRoof IEAD ClimateZone 6, !- Name
  ,                                       !- Surface Rendering Name
  {994c1fe3-9678-40fc-860e-d640900ae7f1}, !- Layer 1
  {8683b960-4deb-4b5f-b016-e397a524e1c8}, !- Layer 2
  {cbb6c54e-12aa-4295-8cfe-d6b2f4afcaa2}; !- Layer 3

OS:StandardsInformation:Construction,
  {04ffc8aa-9c69-4342-9110-f4d0d6c7d133}, !- Handle
  {5ed26530-0d9d-42d7-aee4-2793d5a30f3f}, !- Construction Name
  ExteriorRoof,                           !- Intended Surface Type
  IEAD;                                   !- Standards Construction Type

OS:Material,
  {8683b960-4deb-4b5f-b016-e397a524e1c8}, !- Handle
  Roof Insulation [24],                   !- Name
  MediumRough,                            !- Roughness
  0.260100000000001,                      !- Thickness {m}
  0.049,                                  !- Conductivity {W/m-K}
  265,                                    !- Density {kg/m3}
  836.800000000001,                       !- Specific Heat {J/kg-K}
  0.9,                                    !- Thermal Absorptance
  0.7,                                    !- Solar Absorptance
  0.7;                                    !- Visible Absorptance

OS:Construction,
  {3f9a6dd7-ce57-49c5-bf3d-806e80ba29d9}, !- Handle
  ASHRAE 189.1-2009 ExtRoof IEAD ClimateZone 7-8, !- Name
  ,                                       !- Surface Rendering Name
  {994c1fe3-9678-40fc-860e-d640900ae7f1}, !- Layer 1
  {61356bcd-f807-4814-8c5a-23e360725438}, !- Layer 2
  {cbb6c54e-12aa-4295-8cfe-d6b2f4afcaa2}; !- Layer 3

OS:StandardsInformation:Construction,
  {4f54c90c-cfda-4e08-a0dc-74996502d5b5}, !- Handle
  {3f9a6dd7-ce57-49c5-bf3d-806e80ba29d9}, !- Construction Name
  ExteriorRoof,                           !- Intended Surface Type
  IEAD;                                   !- Standards Construction Type

OS:Material,
  {61356bcd-f807-4814-8c5a-23e360725438}, !- Handle
  Roof Insulation [26],                   !- Name
  MediumRough,                            !- Roughness
  0.2941,                                 !- Thickness {m}
  0.049,                                  !- Conductivity {W/m-K}
  265,                                    !- Density {kg/m3}
  836.800000000001,                       !- Specific Heat {J/kg-K}
  0.9,                                    !- Thermal Absorptance
  0.7,                                    !- Solar Absorptance
  0.7;                                    !- Visible Absorptance

OS:Construction,
  {1a5ad269-ed1f-4ed7-bb28-25ed1e197561}, !- Handle
  ASHRAE 189.1-2009 ExtRoof Metal ClimateZone 1, !- Name
  ,                                       !- Surface Rendering Name
  {99725bb6-45d5-417e-937e-d89fc828bf72}, !- Layer 1
  {b4d7e0bf-f77c-42c1-8e7f-9cc73fde3ec0}; !- Layer 2

OS:StandardsInformation:Construction,
  {eb9c76fb-d674-4bbd-a6d2-fa0734851e68}, !- Handle
  {1a5ad269-ed1f-4ed7-bb28-25ed1e197561}, !- Construction Name
  ExteriorRoof,                           !- Intended Surface Type
  Metal;                                  !- Standards Construction Type

OS:Material,
  {99725bb6-45d5-417e-937e-d89fc828bf72}, !- Handle
  Metal Roofing,                          !- Name
  MediumSmooth,                           !- Roughness
  0.0015,                                 !- Thickness {m}
  45.006,                                 !- Conductivity {W/m-K}
  7680,                                   !- Density {kg/m3}
  418.4,                                  !- Specific Heat {J/kg-K}
  0.9,                                    !- Thermal Absorptance
  0.3,                                    !- Solar Absorptance
  0.3;                                    !- Visible Absorptance

OS:Material,
  {b4d7e0bf-f77c-42c1-8e7f-9cc73fde3ec0}, !- Handle
  Roof Insulation [19],                   !- Name
  MediumRough,                            !- Roughness
  0.1868,                                 !- Thickness {m}
  0.049,                                  !- Conductivity {W/m-K}
  265,                                    !- Density {kg/m3}
  836.800000000001,                       !- Specific Heat {J/kg-K}
  0.9,                                    !- Thermal Absorptance
  0.7,                                    !- Solar Absorptance
  0.7;                                    !- Visible Absorptance

OS:Construction,
  {49b5680e-1b90-4b9c-a8aa-321c2a043bcc}, !- Handle
  ASHRAE 189.1-2009 ExtRoof Metal ClimateZone 2-5, !- Name
  ,                                       !- Surface Rendering Name
  {99725bb6-45d5-417e-937e-d89fc828bf72}, !- Layer 1
  {8b887d7f-8b33-4bd0-baee-edd5b658d35e}; !- Layer 2

OS:StandardsInformation:Construction,
  {5879ebd0-cb69-4688-b6b5-6a2f50f0be29}, !- Handle
  {49b5680e-1b90-4b9c-a8aa-321c2a043bcc}, !- Construction Name
  ExteriorRoof,                           !- Intended Surface Type
  Metal;                                  !- Standards Construction Type

OS:Material,
  {8b887d7f-8b33-4bd0-baee-edd5b658d35e}, !- Handle
  Roof Insulation [22],                   !- Name
  MediumRough,                            !- Roughness
  0.2358,                                 !- Thickness {m}
  0.049,                                  !- Conductivity {W/m-K}
  265,                                    !- Density {kg/m3}
  836.800000000001,                       !- Specific Heat {J/kg-K}
  0.9,                                    !- Thermal Absorptance
  0.7,                                    !- Solar Absorptance
  0.7;                                    !- Visible Absorptance

OS:Construction,
  {d334c14f-257a-40dd-a8cd-4ca9f80b3d1a}, !- Handle
  ASHRAE 189.1-2009 ExtRoof Metal ClimateZone 6, !- Name
  ,                                       !- Surface Rendering Name
  {99725bb6-45d5-417e-937e-d89fc828bf72}, !- Layer 1
  {436ebdca-e1d1-4657-830d-04f1bee2bc5a}; !- Layer 2

OS:StandardsInformation:Construction,
  {344d92e5-e087-4958-98ca-a25e5c1ca6d7}, !- Handle
  {d334c14f-257a-40dd-a8cd-4ca9f80b3d1a}, !- Construction Name
  ExteriorRoof,                           !- Intended Surface Type
  Metal;                                  !- Standards Construction Type

OS:Material,
  {436ebdca-e1d1-4657-830d-04f1bee2bc5a}, !- Handle
  Roof Insulation [25],                   !- Name
  MediumRough,                            !- Roughness
  0.263,                                  !- Thickness {m}
  0.049,                                  !- Conductivity {W/m-K}
  265,                                    !- Density {kg/m3}
  836.800000000001,                       !- Specific Heat {J/kg-K}
  0.9,                                    !- Thermal Absorptance
  0.7,                                    !- Solar Absorptance
  0.7;                                    !- Visible Absorptance

OS:Construction,
  {96735ee7-2bdb-4ff0-87e9-f127fb75e7c1}, !- Handle
  ASHRAE 189.1-2009 ExtRoof Metal ClimateZone 7-8, !- Name
  ,                                       !- Surface Rendering Name
  {99725bb6-45d5-417e-937e-d89fc828bf72}, !- Layer 1
  {f11d460f-4fb0-41b5-895f-4e10c2532036}; !- Layer 2

OS:StandardsInformation:Construction,
  {7d82e288-5c11-4a16-9cf8-9895b8b1109d}, !- Handle
  {96735ee7-2bdb-4ff0-87e9-f127fb75e7c1}, !- Construction Name
  ExteriorRoof,                           !- Intended Surface Type
  Metal;                                  !- Standards Construction Type

OS:Material,
  {f11d460f-4fb0-41b5-895f-4e10c2532036}, !- Handle
  Roof Insulation [27],                   !- Name
  MediumRough,                            !- Roughness
  0.297000000000001,                      !- Thickness {m}
  0.049,                                  !- Conductivity {W/m-K}
  265,                                    !- Density {kg/m3}
  836.800000000001,                       !- Specific Heat {J/kg-K}
  0.9,                                    !- Thermal Absorptance
  0.7,                                    !- Solar Absorptance
  0.7;                                    !- Visible Absorptance

OS:Construction,
  {4e6b2bab-6061-445d-94a7-1ad203fc8b6c}, !- Handle
  ASHRAE 189.1-2009 ExtWall Mass ClimateZone 1, !- Name
  ,                                       !- Surface Rendering Name
  {367abc01-55ca-40dd-8774-131a7639d33e}, !- Layer 1
  {06271961-7f36-4c4f-bfe6-8dab0ad12290}, !- Layer 2
  {e3d3df85-7f36-41ca-87f0-c480c390eace}, !- Layer 3
  {ea2a2ace-13bf-421c-87ed-3bd4941439ab}; !- Layer 4

OS:StandardsInformation:Construction,
  {004540dd-8b9d-4087-bf67-1d465d7f7014}, !- Handle
  {4e6b2bab-6061-445d-94a7-1ad203fc8b6c}, !- Construction Name
  ExteriorWall,                           !- Intended Surface Type
  Mass;                                   !- Standards Construction Type

OS:Material,
  {367abc01-55ca-40dd-8774-131a7639d33e}, !- Handle
  1IN Stucco,                             !- Name
  Smooth,                                 !- Roughness
  0.0253,                                 !- Thickness {m}
  0.691799999999999,                      !- Conductivity {W/m-K}
  1858,                                   !- Density {kg/m3}
  836.999999999999,                       !- Specific Heat {J/kg-K}
  0.9,                                    !- Thermal Absorptance
  0.92,                                   !- Solar Absorptance
  0.92;                                   !- Visible Absorptance

OS:Material,
  {06271961-7f36-4c4f-bfe6-8dab0ad12290}, !- Handle
  8IN Concrete HW,                        !- Name
  MediumRough,                            !- Roughness
  0.2033,                                 !- Thickness {m}
  1.72959999999999,                       !- Conductivity {W/m-K}
  2242.99999999999,                       !- Density {kg/m3}
  836.999999999999,                       !- Specific Heat {J/kg-K}
  0.9,                                    !- Thermal Absorptance
  0.65,                                   !- Solar Absorptance
  0.65;                                   !- Visible Absorptance

OS:Material,
  {e3d3df85-7f36-41ca-87f0-c480c390eace}, !- Handle
  Wall Insulation [31],                   !- Name
  MediumRough,                            !- Roughness
  0.0337000000000001,                     !- Thickness {m}
  0.0432,                                 !- Conductivity {W/m-K}
  91,                                     !- Density {kg/m3}
  836.999999999999,                       !- Specific Heat {J/kg-K}
  0.9,                                    !- Thermal Absorptance
  0.5,                                    !- Solar Absorptance
  0.5;                                    !- Visible Absorptance

OS:Construction,
  {40eaaf09-b6d5-4933-91b3-6f9df39f8aca}, !- Handle
  ASHRAE 189.1-2009 ExtWall Mass ClimateZone 2, !- Name
  ,                                       !- Surface Rendering Name
  {367abc01-55ca-40dd-8774-131a7639d33e}, !- Layer 1
  {06271961-7f36-4c4f-bfe6-8dab0ad12290}, !- Layer 2
  {6ef15b87-9643-4d07-a2de-a9887ffe8095}, !- Layer 3
  {ea2a2ace-13bf-421c-87ed-3bd4941439ab}; !- Layer 4

OS:StandardsInformation:Construction,
  {80edcf69-6000-44b7-8dba-452ea12ff84f}, !- Handle
  {40eaaf09-b6d5-4933-91b3-6f9df39f8aca}, !- Construction Name
  ExteriorWall,                           !- Intended Surface Type
  Mass;                                   !- Standards Construction Type

OS:Material,
  {6ef15b87-9643-4d07-a2de-a9887ffe8095}, !- Handle
  Wall Insulation [35],                   !- Name
  MediumRough,                            !- Roughness
  0.0452,                                 !- Thickness {m}
  0.0432,                                 !- Conductivity {W/m-K}
  91,                                     !- Density {kg/m3}
  836.999999999999,                       !- Specific Heat {J/kg-K}
  0.9,                                    !- Thermal Absorptance
  0.5,                                    !- Solar Absorptance
  0.5;                                    !- Visible Absorptance

OS:Construction,
  {ccede329-a5f5-486b-9441-de3669dfbe78}, !- Handle
  ASHRAE 189.1-2009 ExtWall Mass ClimateZone 3, !- Name
  ,                                       !- Surface Rendering Name
  {367abc01-55ca-40dd-8774-131a7639d33e}, !- Layer 1
  {06271961-7f36-4c4f-bfe6-8dab0ad12290}, !- Layer 2
  {853e106e-b82e-4d8e-a04c-258805561a4d}, !- Layer 3
  {ea2a2ace-13bf-421c-87ed-3bd4941439ab}; !- Layer 4

OS:StandardsInformation:Construction,
  {895db5b3-72f0-46c2-ba00-8947c4f1670b}, !- Handle
  {ccede329-a5f5-486b-9441-de3669dfbe78}, !- Construction Name
  ExteriorWall,                           !- Intended Surface Type
  Mass;                                   !- Standards Construction Type

OS:Material,
  {853e106e-b82e-4d8e-a04c-258805561a4d}, !- Handle
  Wall Insulation [36],                   !- Name
  MediumRough,                            !- Roughness
  0.0565999999999999,                     !- Thickness {m}
  0.0432,                                 !- Conductivity {W/m-K}
  91,                                     !- Density {kg/m3}
  836.999999999999,                       !- Specific Heat {J/kg-K}
  0.9,                                    !- Thermal Absorptance
  0.5,                                    !- Solar Absorptance
  0.5;                                    !- Visible Absorptance

OS:Construction,
  {f776580c-573e-48ff-9583-79dd7f714c00}, !- Handle
  ASHRAE 189.1-2009 ExtWall Mass ClimateZone 4, !- Name
  ,                                       !- Surface Rendering Name
  {367abc01-55ca-40dd-8774-131a7639d33e}, !- Layer 1
  {06271961-7f36-4c4f-bfe6-8dab0ad12290}, !- Layer 2
  {867f7131-7516-410f-8337-65e03f7727c7}, !- Layer 3
  {ea2a2ace-13bf-421c-87ed-3bd4941439ab}; !- Layer 4

OS:StandardsInformation:Construction,
  {7815cf39-6667-4085-8b9e-f68d1ff7278e}, !- Handle
  {f776580c-573e-48ff-9583-79dd7f714c00}, !- Construction Name
  ExteriorWall,                           !- Intended Surface Type
  Mass;                                   !- Standards Construction Type

OS:Material,
  {867f7131-7516-410f-8337-65e03f7727c7}, !- Handle
  Wall Insulation [37],                   !- Name
  MediumRough,                            !- Roughness
  0.0680999999999999,                     !- Thickness {m}
  0.0432,                                 !- Conductivity {W/m-K}
  91,                                     !- Density {kg/m3}
  836.999999999999,                       !- Specific Heat {J/kg-K}
  0.9,                                    !- Thermal Absorptance
  0.5,                                    !- Solar Absorptance
  0.5;                                    !- Visible Absorptance

OS:Construction,
  {78b47dc6-24fa-4151-a7b6-b87ea850ebec}, !- Handle
  ASHRAE 189.1-2009 ExtWall Mass ClimateZone 5, !- Name
  ,                                       !- Surface Rendering Name
  {367abc01-55ca-40dd-8774-131a7639d33e}, !- Layer 1
  {06271961-7f36-4c4f-bfe6-8dab0ad12290}, !- Layer 2
  {df2e588f-3fe9-450b-b831-98deeadd5deb}, !- Layer 3
  {ea2a2ace-13bf-421c-87ed-3bd4941439ab}; !- Layer 4

OS:StandardsInformation:Construction,
  {3a154a11-93cf-48e5-8890-957b44814b11}, !- Handle
  {78b47dc6-24fa-4151-a7b6-b87ea850ebec}, !- Construction Name
  ExteriorWall,                           !- Intended Surface Type
  Mass;                                   !- Standards Construction Type

OS:Material,
  {df2e588f-3fe9-450b-b831-98deeadd5deb}, !- Handle
  Wall Insulation [40],                   !- Name
  MediumRough,                            !- Roughness
  0.0793999999999999,                     !- Thickness {m}
  0.0432,                                 !- Conductivity {W/m-K}
  91,                                     !- Density {kg/m3}
  836.999999999999,                       !- Specific Heat {J/kg-K}
  0.9,                                    !- Thermal Absorptance
  0.5,                                    !- Solar Absorptance
  0.5;                                    !- Visible Absorptance

OS:Construction,
  {f6c408a8-1c3d-41b2-9083-49b68cef9b23}, !- Handle
  ASHRAE 189.1-2009 ExtWall Mass ClimateZone 6, !- Name
  ,                                       !- Surface Rendering Name
  {367abc01-55ca-40dd-8774-131a7639d33e}, !- Layer 1
  {06271961-7f36-4c4f-bfe6-8dab0ad12290}, !- Layer 2
  {e116d6d2-885a-452b-9310-bbbfa7e05ddd}, !- Layer 3
  {ea2a2ace-13bf-421c-87ed-3bd4941439ab}; !- Layer 4

OS:StandardsInformation:Construction,
  {e74f0a5b-112d-4559-8caf-36d1a974b1ee}, !- Handle
  {f6c408a8-1c3d-41b2-9083-49b68cef9b23}, !- Construction Name
  ExteriorWall,                           !- Intended Surface Type
  Mass;                                   !- Standards Construction Type

OS:Material,
  {e116d6d2-885a-452b-9310-bbbfa7e05ddd}, !- Handle
  Wall Insulation [42],                   !- Name
  MediumRough,                            !- Roughness
  0.0913999999999999,                     !- Thickness {m}
  0.0432,                                 !- Conductivity {W/m-K}
  91,                                     !- Density {kg/m3}
  836.999999999999,                       !- Specific Heat {J/kg-K}
  0.9,                                    !- Thermal Absorptance
  0.5,                                    !- Solar Absorptance
  0.5;                                    !- Visible Absorptance

OS:Construction,
  {507afafa-2f01-4d84-a4dc-be66c68104f6}, !- Handle
  ASHRAE 189.1-2009 ExtWall Mass ClimateZone 7-8, !- Name
  ,                                       !- Surface Rendering Name
  {367abc01-55ca-40dd-8774-131a7639d33e}, !- Layer 1
  {06271961-7f36-4c4f-bfe6-8dab0ad12290}, !- Layer 2
  {aaabcd0f-741b-482f-ae56-c580c2a4958e}, !- Layer 3
  {ea2a2ace-13bf-421c-87ed-3bd4941439ab}; !- Layer 4

OS:StandardsInformation:Construction,
  {7f0a8a46-9eae-46a4-a438-408f5de0060b}, !- Handle
  {507afafa-2f01-4d84-a4dc-be66c68104f6}, !- Construction Name
  ExteriorWall,                           !- Intended Surface Type
  Mass;                                   !- Standards Construction Type

OS:Material,
  {aaabcd0f-741b-482f-ae56-c580c2a4958e}, !- Handle
  Wall Insulation [44],                   !- Name
  MediumRough,                            !- Roughness
  0.1104,                                 !- Thickness {m}
  0.0432,                                 !- Conductivity {W/m-K}
  91,                                     !- Density {kg/m3}
  836.999999999999,                       !- Specific Heat {J/kg-K}
  0.9,                                    !- Thermal Absorptance
  0.5,                                    !- Solar Absorptance
  0.5;                                    !- Visible Absorptance

OS:Construction,
  {d132566d-cd47-428c-860d-607e9b2d79e0}, !- Handle
  ASHRAE 189.1-2009 ExtWall Mass ClimateZone alt-res 1, !- Name
  ,                                       !- Surface Rendering Name
  {367abc01-55ca-40dd-8774-131a7639d33e}, !- Layer 1
  {06271961-7f36-4c4f-bfe6-8dab0ad12290}, !- Layer 2
  {6ef15b87-9643-4d07-a2de-a9887ffe8095}, !- Layer 3
  {ea2a2ace-13bf-421c-87ed-3bd4941439ab}; !- Layer 4

OS:StandardsInformation:Construction,
  {fce01b1d-9659-4d7f-858f-266a97fada4e}, !- Handle
  {d132566d-cd47-428c-860d-607e9b2d79e0}, !- Construction Name
  ExteriorWall,                           !- Intended Surface Type
  Mass;                                   !- Standards Construction Type

OS:Construction,
  {f8142ba5-72b9-447c-aa84-3eb8078f0c2e}, !- Handle
  ASHRAE 189.1-2009 ExtWall Mass ClimateZone alt-res 2, !- Name
  ,                                       !- Surface Rendering Name
  {367abc01-55ca-40dd-8774-131a7639d33e}, !- Layer 1
  {06271961-7f36-4c4f-bfe6-8dab0ad12290}, !- Layer 2
  {853e106e-b82e-4d8e-a04c-258805561a4d}, !- Layer 3
  {ea2a2ace-13bf-421c-87ed-3bd4941439ab}; !- Layer 4

OS:StandardsInformation:Construction,
  {0de3528a-7b4b-4452-b6e0-93070d622277}, !- Handle
  {f8142ba5-72b9-447c-aa84-3eb8078f0c2e}, !- Construction Name
  ExteriorWall,                           !- Intended Surface Type
  Mass;                                   !- Standards Construction Type

OS:Construction,
  {46f7da8e-1fcb-4ce4-b008-43c6ee8fef3b}, !- Handle
  ASHRAE 189.1-2009 ExtWall Mass ClimateZone alt-res 3, !- Name
  ,                                       !- Surface Rendering Name
  {367abc01-55ca-40dd-8774-131a7639d33e}, !- Layer 1
  {06271961-7f36-4c4f-bfe6-8dab0ad12290}, !- Layer 2
  {867f7131-7516-410f-8337-65e03f7727c7}, !- Layer 3
  {ea2a2ace-13bf-421c-87ed-3bd4941439ab}; !- Layer 4

OS:StandardsInformation:Construction,
  {9be1bfc8-d47f-410e-b0db-d2f6db0fb617}, !- Handle
  {46f7da8e-1fcb-4ce4-b008-43c6ee8fef3b}, !- Construction Name
  ExteriorWall,                           !- Intended Surface Type
  Mass;                                   !- Standards Construction Type

OS:Construction,
  {3cd3c567-4249-4b63-9d44-df849b69e812}, !- Handle
  ASHRAE 189.1-2009 ExtWall Mass ClimateZone alt-res 4, !- Name
  ,                                       !- Surface Rendering Name
  {367abc01-55ca-40dd-8774-131a7639d33e}, !- Layer 1
  {06271961-7f36-4c4f-bfe6-8dab0ad12290}, !- Layer 2
  {df2e588f-3fe9-450b-b831-98deeadd5deb}, !- Layer 3
  {ea2a2ace-13bf-421c-87ed-3bd4941439ab}; !- Layer 4

OS:StandardsInformation:Construction,
  {343cd0b3-22a6-463a-a685-de74a3df8757}, !- Handle
  {3cd3c567-4249-4b63-9d44-df849b69e812}, !- Construction Name
  ExteriorWall,                           !- Intended Surface Type
  Mass;                                   !- Standards Construction Type

OS:Construction,
  {bc3e548f-d7b0-4ed4-b66a-00e7ac748939}, !- Handle
  ASHRAE 189.1-2009 ExtWall Mass ClimateZone alt-res 5, !- Name
  ,                                       !- Surface Rendering Name
  {367abc01-55ca-40dd-8774-131a7639d33e}, !- Layer 1
  {06271961-7f36-4c4f-bfe6-8dab0ad12290}, !- Layer 2
  {e116d6d2-885a-452b-9310-bbbfa7e05ddd}, !- Layer 3
  {ea2a2ace-13bf-421c-87ed-3bd4941439ab}; !- Layer 4

OS:StandardsInformation:Construction,
  {0dfd1aa4-c506-45d3-af23-f507591cf3c1}, !- Handle
  {bc3e548f-d7b0-4ed4-b66a-00e7ac748939}, !- Construction Name
  ExteriorWall,                           !- Intended Surface Type
  Mass;                                   !- Standards Construction Type

OS:Construction,
  {097daa6c-5624-4686-a87f-0f42975d0f12}, !- Handle
  ASHRAE 189.1-2009 ExtWall Mass ClimateZone alt-res 6, !- Name
  ,                                       !- Surface Rendering Name
  {367abc01-55ca-40dd-8774-131a7639d33e}, !- Layer 1
  {06271961-7f36-4c4f-bfe6-8dab0ad12290}, !- Layer 2
  {aaabcd0f-741b-482f-ae56-c580c2a4958e}, !- Layer 3
  {ea2a2ace-13bf-421c-87ed-3bd4941439ab}; !- Layer 4

OS:StandardsInformation:Construction,
  {9011af21-c4be-47f8-b7c3-866f40ed8b6d}, !- Handle
  {097daa6c-5624-4686-a87f-0f42975d0f12}, !- Construction Name
  ExteriorWall,                           !- Intended Surface Type
  Mass;                                   !- Standards Construction Type

OS:Construction,
  {a285be7d-c787-43a2-a518-3b7dc86ce87a}, !- Handle
  ASHRAE 189.1-2009 ExtWall Mass ClimateZone alt-res 7, !- Name
  ,                                       !- Surface Rendering Name
  {367abc01-55ca-40dd-8774-131a7639d33e}, !- Layer 1
  {06271961-7f36-4c4f-bfe6-8dab0ad12290}, !- Layer 2
  {aaabcd0f-741b-482f-ae56-c580c2a4958e}, !- Layer 3
  {ea2a2ace-13bf-421c-87ed-3bd4941439ab}; !- Layer 4

OS:StandardsInformation:Construction,
  {07ca48d7-7453-49dc-a2d7-da4c4b65700b}, !- Handle
  {a285be7d-c787-43a2-a518-3b7dc86ce87a}, !- Construction Name
  ExteriorWall,                           !- Intended Surface Type
  Mass;                                   !- Standards Construction Type

OS:Construction,
  {fe97f211-30a7-47c8-a802-ae2dcf7f2dac}, !- Handle
  ASHRAE 189.1-2009 ExtWall Mass ClimateZone alt-res 8, !- Name
  ,                                       !- Surface Rendering Name
  {367abc01-55ca-40dd-8774-131a7639d33e}, !- Layer 1
  {06271961-7f36-4c4f-bfe6-8dab0ad12290}, !- Layer 2
  {46f8acc3-b674-4848-9a1f-48c1acff042c}, !- Layer 3
  {ea2a2ace-13bf-421c-87ed-3bd4941439ab}; !- Layer 4

OS:StandardsInformation:Construction,
  {59920c40-1acc-41a7-9d80-b41cfe371d72}, !- Handle
  {fe97f211-30a7-47c8-a802-ae2dcf7f2dac}, !- Construction Name
  ExteriorWall,                           !- Intended Surface Type
  Mass;                                   !- Standards Construction Type

OS:Material,
  {46f8acc3-b674-4848-9a1f-48c1acff042c}, !- Handle