
OS:Version,
  {f0ca9359-1933-4d28-8b0b-94e4826034b0}, !- Handle
  1.3.0;                                  !- Version Identifier

OS:Construction,
  {aa4ea0fa-2a9c-48d3-811c-6f0ca1813522}, !- Handle
  ASHRAE 189.1-2009 AtticFloor ClimateZone 1-8, !- Name
  ,                                       !- Surface Rendering Name
  {b53954cf-b065-48a4-8382-23b92f8f0cc0}, !- Layer 1
  {5a14b7bc-a740-48e6-acb3-ba5f9c0f4f3f}, !- Layer 2
  {b53954cf-b065-48a4-8382-23b92f8f0cc0}; !- Layer 3

OS:StandardsInformation:Construction,
  {d3de831a-414c-4352-8eb8-af1cec704ded}, !- Handle
  {aa4ea0fa-2a9c-48d3-811c-6f0ca1813522}, !- Construction Name
  AtticFloor,                             !- Intended Surface Type
  WoodFramed;                             !- Standards Construction Type

OS:Material,
  {b53954cf-b065-48a4-8382-23b92f8f0cc0}, !- Handle
  1/2IN Gypsum,                           !- Name
  Smooth,                                 !- Roughness
  0.0127,                                 !- Thickness {m}
  0.16,                                   !- Conductivity {W/m-K}
  784.9,                                  !- Density {kg/m3}
  830.000000000001,                       !- Specific Heat {J/kg-K}
  0.9,                                    !- Thermal Absorptance
  0.92,                                   !- Solar Absorptance
  0.92;                                   !- Visible Absorptance

OS:Material,
  {5a14b7bc-a740-48e6-acb3-ba5f9c0f4f3f}, !- Handle
  AtticFloor Insulation,                  !- Name
  MediumRough,                            !- Roughness
  0.2379,                                 !- Thickness {m}
  0.049,                                  !- Conductivity {W/m-K}
  265,                                    !- Density {kg/m3}
  836.800000000001,                       !- Specific Heat {J/kg-K}
  0.9,                                    !- Thermal Absorptance
  0.7,                                    !- Solar Absorptance
  0.7;                                    !- Visible Absorptance

OS:Construction,
  {40a0ea9a-88e9-42c7-8e0e-11603f474906}, !- Handle
  ASHRAE 189.1-2009 ExtRoof IEAD ClimateZone 1, !- Name
  ,                                       !- Surface Rendering Name
  {b0771ae4-587b-421a-a729-aae44aaf2475}, !- Layer 1
  {e67d6dff-e841-4b2c-b341-89039a199dec}, !- Layer 2
  {f1e906c7-a7dd-405a-9b95-d0f37059e87f}; !- Layer 3

OS:StandardsInformation:Construction,
  {3c7019d6-cd61-4787-91dc-b9c2430378a9}, !- Handle
  {40a0ea9a-88e9-42c7-8e0e-11603f474906}, !- Construction Name
  ExteriorRoof,                           !- Intended Surface Type
  IEAD;                                   !- Standards Construction Type

OS:Material,
  {b0771ae4-587b-421a-a729-aae44aaf2475}, !- Handle
  Roof Membrane,                          !- Name
  VeryRough,                              !- Roughness
  0.0095,                                 !- Thickness {m}
  0.16,                                   !- Conductivity {W/m-K}
  1121.29,                                !- Density {kg/m3}
  1460,                                   !- Specific Heat {J/kg-K}
  0.9,                                    !- Thermal Absorptance
  0.7,                                    !- Solar Absorptance
  0.7;                                    !- Visible Absorptance

OS:Material,
  {e67d6dff-e841-4b2c-b341-89039a199dec}, !- Handle
  Roof Insulation [18],                   !- Name
  MediumRough,                            !- Roughness
  0.1693,                                 !- Thickness {m}
  0.049,                                  !- Conductivity {W/m-K}
  265,                                    !- Density {kg/m3}
  836.800000000001,                       !- Specific Heat {J/kg-K}
  0.9,                                    !- Thermal Absorptance
  0.7,                                    !- Solar Absorptance
  0.7;                                    !- Visible Absorptance

OS:Material,
  {f1e906c7-a7dd-405a-9b95-d0f37059e87f}, !- Handle
  Metal Decking,                          !- Name
  MediumSmooth,                           !- Roughness
  0.0015,                                 !- Thickness {m}
  45.006,                                 !- Conductivity {W/m-K}
  7680,                                   !- Density {kg/m3}
  418.4,                                  !- Specific Heat {J/kg-K}
  0.9,                                    !- Thermal Absorptance
  0.7,                                    !- Solar Absorptance
  0.3;                                    !- Visible Absorptance

OS:Construction,
  {fdb89cd2-2e75-40f0-b3a0-4e0cbd990b88}, !- Handle
  ASHRAE 189.1-2009 ExtRoof IEAD ClimateZone 2-5, !- Name
  ,                                       !- Surface Rendering Name
  {b0771ae4-587b-421a-a729-aae44aaf2475}, !- Layer 1
  {0739ced2-fa31-494a-8592-4383ed01d138}, !- Layer 2
  {f1e906c7-a7dd-405a-9b95-d0f37059e87f}; !- Layer 3

OS:StandardsInformation:Construction,
  {13bb09e6-2b00-4e33-b1d6-c6f4087eec36}, !- Handle
  {fdb89cd2-2e75-40f0-b3a0-4e0cbd990b88}, !- Construction Name
  ExteriorRoof,                           !- Intended Surface Type
  IEAD;                                   !- Standards Construction Type

OS:Material,
  {0739ced2-fa31-494a-8592-4383ed01d138}, !- Handle
  Roof Insulation [21],                   !- Name
  MediumRough,                            !- Roughness
  0.2105,                                 !- Thickness {m}
  0.049,                                  !- Conductivity {W/m-K}
  265,                                    !- Density {kg/m3}
  836.800000000001,                       !- Specific Heat {J/kg-K}
  0.9,                                    !- Thermal Absorptance
  0.7,                                    !- Solar Absorptance
  0.7;                                    !- Visible Absorptance

OS:Construction,
  {dc0f39eb-8d53-47ea-bea6-80c812e11e75}, !- Handle
  ASHRAE 189.1-2009 ExtRoof IEAD ClimateZone 6, !- Name
  ,                                       !- Surface Rendering Name
  {b0771ae4-587b-421a-a729-aae44aaf2475}, !- Layer 1
  {b4eee556-0ee8-4269-be31-d9d22c9f6484}, !- Layer 2
  {f1e906c7-a7dd-405a-9b95-d0f37059e87f}; !- Layer 3

OS:StandardsInformation:Construction,
  {567bb197-3047-482a-b809-526cf3cbb00d}, !- Handle
  {dc0f39eb-8d53-47ea-bea6-80c812e11e75}, !- Construction Name
  ExteriorRoof,                           !- Intended Surface Type
  IEAD;                                   !- Standards Construction Type

OS:Material,
  {b4eee556-0ee8-4269-be31-d9d22c9f6484}, !- Handle
  Roof Insulation [24],                   !- Name
  MediumRough,                            !- Roughness
  0.260100000000001,                      !- Thickness {m}
  0.049,                                  !- Conductivity {W/m-K}
  265,                                    !- Density {kg/m3}
  836.800000000001,                       !- Specific Heat {J/kg-K}
  0.9,                                    !- Thermal Absorptance
  0.7,                                    !- Solar Absorptance
  0.7;                                    !- Visible Absorptance

OS:Construction,
  {87d04872-6630-4f83-a2c3-2b202db554dd}, !- Handle
  ASHRAE 189.1-2009 ExtRoof IEAD ClimateZone 7-8, !- Name
  ,                                       !- Surface Rendering Name
  {b0771ae4-587b-421a-a729-aae44aaf2475}, !- Layer 1
  {37d7a4d5-1d0e-4e43-9d0a-8f575c50c8c3}, !- Layer 2
  {f1e906c7-a7dd-405a-9b95-d0f37059e87f}; !- Layer 3

OS:StandardsInformation:Construction,
  {facd6430-130d-47d3-9caf-703fcb77539b}, !- Handle
  {87d04872-6630-4f83-a2c3-2b202db554dd}, !- Construction Name
  ExteriorRoof,                           !- Intended Surface Type
  IEAD;                                   !- Standards Construction Type

OS:Material,
  {37d7a4d5-1d0e-4e43-9d0a-8f575c50c8c3}, !- Handle
  Roof Insulation [26],                   !- Name
  MediumRough,                            !- Roughness
  0.2941,                                 !- Thickness {m}
  0.049,                                  !- Conductivity {W/m-K}
  265,                                    !- Density {kg/m3}
  836.800000000001,                       !- Specific Heat {J/kg-K}
  0.9,                                    !- Thermal Absorptance
  0.7,                                    !- Solar Absorptance
  0.7;                                    !- Visible Absorptance

OS:Construction,
  {968132f4-510a-4cd0-97f9-479802a49266}, !- Handle
  ASHRAE 189.1-2009 ExtRoof Metal ClimateZone 1, !- Name
  ,                                       !- Surface Rendering Name
  {46d9a2b7-f05d-49f1-8753-a4885749945c}, !- Layer 1
  {9fd659c2-c400-44c4-bd50-5bbcbedaa81a}; !- Layer 2

OS:StandardsInformation:Construction,
  {d269f398-3221-4a37-9d94-03aa62b72e6a}, !- Handle
  {968132f4-510a-4cd0-97f9-479802a49266}, !- Construction Name
  ExteriorRoof,                           !- Intended Surface Type
  Metal;                                  !- Standards Construction Type

OS:Material,
  {46d9a2b7-f05d-49f1-8753-a4885749945c}, !- Handle
  Metal Roofing,                          !- Name
  MediumSmooth,                           !- Roughness
  0.0015,                                 !- Thickness {m}
  45.006,                                 !- Conductivity {W/m-K}
  7680,                                   !- Density {kg/m3}
  418.4,                                  !- Specific Heat {J/kg-K}
  0.9,                                    !- Thermal Absorptance
  0.3,                                    !- Solar Absorptance
  0.3;                                    !- Visible Absorptance

OS:Material,
  {9fd659c2-c400-44c4-bd50-5bbcbedaa81a}, !- Handle
  Roof Insulation [19],                   !- Name
  MediumRough,                            !- Roughness
  0.1868,                                 !- Thickness {m}
  0.049,                                  !- Conductivity {W/m-K}
  265,                                    !- Density {kg/m3}
  836.800000000001,                       !- Specific Heat {J/kg-K}
  0.9,                                    !- Thermal Absorptance
  0.7,                                    !- Solar Absorptance
  0.7;                                    !- Visible Absorptance

OS:Construction,
  {61462e8d-e720-4fb7-93bf-9cc2ff2ee677}, !- Handle
  ASHRAE 189.1-2009 ExtRoof Metal ClimateZone 2-5, !- Name
  ,                                       !- Surface Rendering Name
  {46d9a2b7-f05d-49f1-8753-a4885749945c}, !- Layer 1
  {631e1aee-5d51-4aec-83ba-6d0892335c96}; !- Layer 2

OS:StandardsInformation:Construction,
  {d43fd0b9-7da6-498e-90d6-5d369dc80fca}, !- Handle
  {61462e8d-e720-4fb7-93bf-9cc2ff2ee677}, !- Construction Name
  ExteriorRoof,                           !- Intended Surface Type
  Metal;                                  !- Standards Construction Type

OS:Material,
  {631e1aee-5d51-4aec-83ba-6d0892335c96}, !- Handle
  Roof Insulation [22],                   !- Name
  MediumRough,                            !- Roughness
  0.2358,                                 !- Thickness {m}
  0.049,                                  !- Conductivity {W/m-K}
  265,                                    !- Density {kg/m3}
  836.800000000001,                       !- Specific Heat {J/kg-K}
  0.9,                                    !- Thermal Absorptance
  0.7,                                    !- Solar Absorptance
  0.7;                                    !- Visible Absorptance

OS:Construction,
  {edb12e36-7b52-460d-9b4c-cc1f40aa4a91}, !- Handle
  ASHRAE 189.1-2009 ExtRoof Metal ClimateZone 6, !- Name
  ,                                       !- Surface Rendering Name
  {46d9a2b7-f05d-49f1-8753-a4885749945c}, !- Layer 1
  {bc805adf-2513-4e9f-98ee-17092b8fc223}; !- Layer 2

OS:StandardsInformation:Construction,
  {a676638c-bb6e-4d8c-a9e1-537068173f6b}, !- Handle
  {edb12e36-7b52-460d-9b4c-cc1f40aa4a91}, !- Construction Name
  ExteriorRoof,                           !- Intended Surface Type
  Metal;                                  !- Standards Construction Type

OS:Material,
  {bc805adf-2513-4e9f-98ee-17092b8fc223}, !- Handle
  Roof Insulation [25],                   !- Name
  MediumRough,                            !- Roughness
  0.263,                                  !- Thickness {m}
  0.049,                                  !- Conductivity {W/m-K}
  265,                                    !- Density {kg/m3}
  836.800000000001,                       !- Specific Heat {J/kg-K}
  0.9,                                    !- Thermal Absorptance
  0.7,                                    !- Solar Absorptance
  0.7;                                    !- Visible Absorptance

OS:Construction,
  {84b7b5eb-864c-4005-8495-24e56b9149e7}, !- Handle
  ASHRAE 189.1-2009 ExtRoof Metal ClimateZone 7-8, !- Name
  ,                                       !- Surface Rendering Name
  {46d9a2b7-f05d-49f1-8753-a4885749945c}, !- Layer 1
  {5a2db09d-e476-481a-b961-8ea7fd1a1f23}; !- Layer 2

OS:StandardsInformation:Construction,
  {047c8e9a-e5d8-4d5d-ad18-51c7f3cb5c6a}, !- Handle
  {84b7b5eb-864c-4005-8495-24e56b9149e7}, !- Construction Name
  ExteriorRoof,                           !- Intended Surface Type
  Metal;                                  !- Standards Construction Type

OS:Material,
  {5a2db09d-e476-481a-b961-8ea7fd1a1f23}, !- Handle
  Roof Insulation [27],                   !- Name
  MediumRough,                            !- Roughness
  0.297000000000001,                      !- Thickness {m}
  0.049,                                  !- Conductivity {W/m-K}
  265,                                    !- Density {kg/m3}
  836.800000000001,                       !- Specific Heat {J/kg-K}
  0.9,                                    !- Thermal Absorptance
  0.7,                                    !- Solar Absorptance
  0.7;                                    !- Visible Absorptance

OS:Construction,
  {c6333a9a-c721-41c2-8793-782dadab20a6}, !- Handle
  ASHRAE 189.1-2009 ExtWall Mass ClimateZone 1, !- Name
  ,                                       !- Surface Rendering Name
  {e620b1dd-d7d9-440f-bc51-2573b97120e4}, !- Layer 1
  {3e22900a-f52f-4a15-a0a8-0b1a41c08cbc}, !- Layer 2
  {ebf607e6-ae2c-4605-9e59-15af7f6a0b51}, !- Layer 3
  {b53954cf-b065-48a4-8382-23b92f8f0cc0}; !- Layer 4

OS:StandardsInformation:Construction,
  {8b5cf728-379e-4317-a72c-e0e3095132d0}, !- Handle
  {c6333a9a-c721-41c2-8793-782dadab20a6}, !- Construction Name
  ExteriorWall,                           !- Intended Surface Type
  Mass;                                   !- Standards Construction Type

OS:Material,
  {e620b1dd-d7d9-440f-bc51-2573b97120e4}, !- Handle
  1IN Stucco,                             !- Name
  Smooth,                                 !- Roughness
  0.0253,                                 !- Thickness {m}
  0.691799999999999,                      !- Conductivity {W/m-K}
  1858,                                   !- Density {kg/m3}
  836.999999999999,                       !- Specific Heat {J/kg-K}
  0.9,                                    !- Thermal Absorptance
  0.92,                                   !- Solar Absorptance
  0.92;                                   !- Visible Absorptance

OS:Material,
  {3e22900a-f52f-4a15-a0a8-0b1a41c08cbc}, !- Handle
  8IN Concrete HW,                        !- Name
  MediumRough,                            !- Roughness
  0.2033,                                 !- Thickness {m}
  1.72959999999999,                       !- Conductivity {W/m-K}
  2242.99999999999,                       !- Density {kg/m3}
  836.999999999999,                       !- Specific Heat {J/kg-K}
  0.9,                                    !- Thermal Absorptance
  0.65,                                   !- Solar Absorptance
  0.65;                                   !- Visible Absorptance

OS:Material,
  {ebf607e6-ae2c-4605-9e59-15af7f6a0b51}, !- Handle
  Wall Insulation [31],                   !- Name
  MediumRough,                            !- Roughness
  0.0337000000000001,                     !- Thickness {m}
  0.0432,                                 !- Conductivity {W/m-K}
  91,                                     !- Density {kg/m3}
  836.999999999999,                       !- Specific Heat {J/kg-K}
  0.9,                                    !- Thermal Absorptance
  0.5,                                    !- Solar Absorptance
  0.5;                                    !- Visible Absorptance

OS:Construction,
  {ab8e0d11-5a82-40c7-b921-9499d89f2502}, !- Handle
  ASHRAE 189.1-2009 ExtWall Mass ClimateZone 2, !- Name
  ,                                       !- Surface Rendering Name
  {e620b1dd-d7d9-440f-bc51-2573b97120e4}, !- Layer 1
  {3e22900a-f52f-4a15-a0a8-0b1a41c08cbc}, !- Layer 2
  {10c59a71-0e3f-48f7-89b7-181c06b1c8f1}, !- Layer 3
  {b53954cf-b065-48a4-8382-23b92f8f0cc0}; !- Layer 4

OS:StandardsInformation:Construction,
  {e4b4bf24-6f4a-429d-9dfe-428dda972115}, !- Handle
  {ab8e0d11-5a82-40c7-b921-9499d89f2502}, !- Construction Name
  ExteriorWall,                           !- Intended Surface Type
  Mass;                                   !- Standards Construction Type

OS:Material,
  {10c59a71-0e3f-48f7-89b7-181c06b1c8f1}, !- Handle
  Wall Insulation [35],                   !- Name
  MediumRough,                            !- Roughness
  0.0452,                                 !- Thickness {m}
  0.0432,                                 !- Conductivity {W/m-K}
  91,                                     !- Density {kg/m3}
  836.999999999999,                       !- Specific Heat {J/kg-K}
  0.9,                                    !- Thermal Absorptance
  0.5,                                    !- Solar Absorptance
  0.5;                                    !- Visible Absorptance

OS:Construction,
  {4de59e95-8c3c-4194-ae19-7b14aaac8c03}, !- Handle
  ASHRAE 189.1-2009 ExtWall Mass ClimateZone 3, !- Name
  ,                                       !- Surface Rendering Name
  {e620b1dd-d7d9-440f-bc51-2573b97120e4}, !- Layer 1
  {3e22900a-f52f-4a15-a0a8-0b1a41c08cbc}, !- Layer 2
  {b03d0600-1714-4278-8501-6bc6e89dedf5}, !- Layer 3
  {b53954cf-b065-48a4-8382-23b92f8f0cc0}; !- Layer 4

OS:StandardsInformation:Construction,
  {c041c82b-692a-4ea1-a1f9-a759e313fbea}, !- Handle
  {4de59e95-8c3c-4194-ae19-7b14aaac8c03}, !- Construction Name
  ExteriorWall,                           !- Intended Surface Type
  Mass;                                   !- Standards Construction Type

OS:Material,
  {b03d0600-1714-4278-8501-6bc6e89dedf5}, !- Handle
  Wall Insulation [36],                   !- Name
  MediumRough,                            !- Roughness
  0.0565999999999999,                     !- Thickness {m}
  0.0432,                                 !- Conductivity {W/m-K}
  91,                                     !- Density {kg/m3}
  836.999999999999,                       !- Specific Heat {J/kg-K}
  0.9,                                    !- Thermal Absorptance
  0.5,                                    !- Solar Absorptance
  0.5;                                    !- Visible Absorptance

OS:Construction,
  {9e32f411-df47-45ac-ae73-13d1c34d049b}, !- Handle
  ASHRAE 189.1-2009 ExtWall Mass ClimateZone 4, !- Name
  ,                                       !- Surface Rendering Name
  {e620b1dd-d7d9-440f-bc51-2573b97120e4}, !- Layer 1
  {3e22900a-f52f-4a15-a0a8-0b1a41c08cbc}, !- Layer 2
  {a5eb0bf8-efaa-4f81-a4a2-c1686c9af356}, !- Layer 3
  {b53954cf-b065-48a4-8382-23b92f8f0cc0}; !- Layer 4

OS:StandardsInformation:Construction,
  {4be017b7-7bad-447d-ad26-7666ccd74cf3}, !- Handle
  {9e32f411-df47-45ac-ae73-13d1c34d049b}, !- Construction Name
  ExteriorWall,                           !- Intended Surface Type
  Mass;                                   !- Standards Construction Type

OS:Material,
  {a5eb0bf8-efaa-4f81-a4a2-c1686c9af356}, !- Handle
  Wall Insulation [37],                   !- Name
  MediumRough,                            !- Roughness
  0.0680999999999999,                     !- Thickness {m}
  0.0432,                                 !- Conductivity {W/m-K}
  91,                                     !- Density {kg/m3}
  836.999999999999,                       !- Specific Heat {J/kg-K}
  0.9,                                    !- Thermal Absorptance
  0.5,                                    !- Solar Absorptance
  0.5;                                    !- Visible Absorptance

OS:Construction,
  {cab66df5-2916-4034-b342-b6d88280cf29}, !- Handle
  ASHRAE 189.1-2009 ExtWall Mass ClimateZone 5, !- Name
  ,                                       !- Surface Rendering Name
  {e620b1dd-d7d9-440f-bc51-2573b97120e4}, !- Layer 1
  {3e22900a-f52f-4a15-a0a8-0b1a41c08cbc}, !- Layer 2
  {731cc61a-dbbe-4c6a-a40e-1bf162b1159f}, !- Layer 3
  {b53954cf-b065-48a4-8382-23b92f8f0cc0}; !- Layer 4

OS:StandardsInformation:Construction,
  {ddbf63aa-4d86-4b79-8e36-791c82d6365e}, !- Handle
  {cab66df5-2916-4034-b342-b6d88280cf29}, !- Construction Name
  ExteriorWall,                           !- Intended Surface Type
  Mass;                                   !- Standards Construction Type

OS:Material,
  {731cc61a-dbbe-4c6a-a40e-1bf162b1159f}, !- Handle
  Wall Insulation [40],                   !- Name
  MediumRough,                            !- Roughness
  0.0793999999999999,                     !- Thickness {m}
  0.0432,                                 !- Conductivity {W/m-K}
  91,                                     !- Density {kg/m3}
  836.999999999999,                       !- Specific Heat {J/kg-K}
  0.9,                                    !- Thermal Absorptance
  0.5,                                    !- Solar Absorptance
  0.5;                                    !- Visible Absorptance

OS:Construction,
  {5cecfa47-c43d-42e4-b25e-42a7c3aeda51}, !- Handle
  ASHRAE 189.1-2009 ExtWall Mass ClimateZone 6, !- Name
  ,                                       !- Surface Rendering Name
  {e620b1dd-d7d9-440f-bc51-2573b97120e4}, !- Layer 1
  {3e22900a-f52f-4a15-a0a8-0b1a41c08cbc}, !- Layer 2
  {03fb259c-ab2e-46b3-aa8d-9e5ec211384b}, !- Layer 3
  {b53954cf-b065-48a4-8382-23b92f8f0cc0}; !- Layer 4

OS:StandardsInformation:Construction,
  {4dcc90c2-e6cb-4b52-87c3-e0e73d09e7f4}, !- Handle
  {5cecfa47-c43d-42e4-b25e-42a7c3aeda51}, !- Construction Name
  ExteriorWall,                           !- Intended Surface Type
  Mass;                                   !- Standards Construction Type

OS:Material,
  {03fb259c-ab2e-46b3-aa8d-9e5ec211384b}, !- Handle
  Wall Insulation [42],                   !- Name
  MediumRough,                            !- Roughness
  0.0913999999999999,                     !- Thickness {m}
  0.0432,                                 !- Conductivity {W/m-K}
  91,                                     !- Density {kg/m3}
  836.999999999999,                       !- Specific Heat {J/kg-K}
  0.9,                                    !- Thermal Absorptance
  0.5,                                    !- Solar Absorptance
  0.5;                                    !- Visible Absorptance

OS:Construction,
  {1329af10-b825-468b-be25-abfd05d14bca}, !- Handle
  ASHRAE 189.1-2009 ExtWall Mass ClimateZone 7-8, !- Name
  ,                                       !- Surface Rendering Name
  {e620b1dd-d7d9-440f-bc51-2573b97120e4}, !- Layer 1
  {3e22900a-f52f-4a15-a0a8-0b1a41c08cbc}, !- Layer 2
  {d7ebd3b0-87f3-49e1-adef-d50de22d6005}, !- Layer 3
  {b53954cf-b065-48a4-8382-23b92f8f0cc0}; !- Layer 4

OS:StandardsInformation:Construction,
  {2721c77d-e69c-4c25-855f-72edfc4f92a9}, !- Handle
  {1329af10-b825-468b-be25-abfd05d14bca}, !- Construction Name
  ExteriorWall,                           !- Intended Surface Type
  Mass;                                   !- Standards Construction Type

OS:Material,
  {d7ebd3b0-87f3-49e1-adef-d50de22d6005}, !- Handle
  Wall Insulation [44],                   !- Name
  MediumRough,                            !- Roughness
  0.1104,                                 !- Thickness {m}
  0.0432,                                 !- Conductivity {W/m-K}
  91,                                     !- Density {kg/m3}
  836.999999999999,                       !- Specific Heat {J/kg-K}
  0.9,                                    !- Thermal Absorptance
  0.5,                                    !- Solar Absorptance
  0.5;                                    !- Visible Absorptance

OS:Construction,
  {77485bd2-65fe-4be0-a8f3-703eea7ba916}, !- Handle
  ASHRAE 189.1-2009 ExtWall Mass ClimateZone alt-res 1, !- Name
  ,                                       !- Surface Rendering Name
  {e620b1dd-d7d9-440f-bc51-2573b97120e4}, !- Layer 1
  {3e22900a-f52f-4a15-a0a8-0b1a41c08cbc}, !- Layer 2
  {10c59a71-0e3f-48f7-89b7-181c06b1c8f1}, !- Layer 3
  {b53954cf-b065-48a4-8382-23b92f8f0cc0}; !- Layer 4

OS:StandardsInformation:Construction,
  {0a2a4b4a-4d4c-4469-954f-346f479bf8c9}, !- Handle
  {77485bd2-65fe-4be0-a8f3-703eea7ba916}, !- Construction Name
  ExteriorWall,                           !- Intended Surface Type
  Mass;                                   !- Standards Construction Type

OS:Construction,
  {af1a862b-7844-4eaf-9563-3db0cd68d71d}, !- Handle
  ASHRAE 189.1-2009 ExtWall Mass ClimateZone alt-res 2, !- Name
  ,                                       !- Surface Rendering Name
  {e620b1dd-d7d9-440f-bc51-2573b97120e4}, !- Layer 1
  {3e22900a-f52f-4a15-a0a8-0b1a41c08cbc}, !- Layer 2
  {b03d0600-1714-4278-8501-6bc6e89dedf5}, !- Layer 3
  {b53954cf-b065-48a4-8382-23b92f8f0cc0}; !- Layer 4

OS:StandardsInformation:Construction,
  {6f293d19-a3b7-4941-a003-cad14ecc0161}, !- Handle
  {af1a862b-7844-4eaf-9563-3db0cd68d71d}, !- Construction Name
  ExteriorWall,                           !- Intended Surface Type
  Mass;                                   !- Standards Construction Type

OS:Construction,
  {7a39cecc-d0ad-473b-91c7-e870be38acb3}, !- Handle
  ASHRAE 189.1-2009 ExtWall Mass ClimateZone alt-res 3, !- Name
  ,                                       !- Surface Rendering Name
  {e620b1dd-d7d9-440f-bc51-2573b97120e4}, !- Layer 1
  {3e22900a-f52f-4a15-a0a8-0b1a41c08cbc}, !- Layer 2
  {a5eb0bf8-efaa-4f81-a4a2-c1686c9af356}, !- Layer 3
  {b53954cf-b065-48a4-8382-23b92f8f0cc0}; !- Layer 4

OS:StandardsInformation:Construction,
  {f858f348-1f2d-4cd8-bf2e-b47232abdd0e}, !- Handle
  {7a39cecc-d0ad-473b-91c7-e870be38acb3}, !- Construction Name
  ExteriorWall,                           !- Intended Surface Type
  Mass;                                   !- Standards Construction Type

OS:Construction,
  {ce50dd91-0e79-45b8-8d41-f90786ffa065}, !- Handle
  ASHRAE 189.1-2009 ExtWall Mass ClimateZone alt-res 4, !- Name
  ,                                       !- Surface Rendering Name
  {e620b1dd-d7d9-440f-bc51-2573b97120e4}, !- Layer 1
  {3e22900a-f52f-4a15-a0a8-0b1a41c08cbc}, !- Layer 2
  {731cc61a-dbbe-4c6a-a40e-1bf162b1159f}, !- Layer 3
  {b53954cf-b065-48a4-8382-23b92f8f0cc0}; !- Layer 4

OS:StandardsInformation:Construction,
  {71422f3e-3082-4d02-aa5c-3621746c959d}, !- Handle
  {ce50dd91-0e79-45b8-8d41-f90786ffa065}, !- Construction Name
  ExteriorWall,                           !- Intended Surface Type
  Mass;                                   !- Standards Construction Type

OS:Construction,
  {c85a9726-7c62-434a-8d12-11c299ac6161}, !- Handle
  ASHRAE 189.1-2009 ExtWall Mass ClimateZone alt-res 5, !- Name
  ,                                       !- Surface Rendering Name
  {e620b1dd-d7d9-440f-bc51-2573b97120e4}, !- Layer 1
  {3e22900a-f52f-4a15-a0a8-0b1a41c08cbc}, !- Layer 2
  {03fb259c-ab2e-46b3-aa8d-9e5ec211384b}, !- Layer 3
  {b53954cf-b065-48a4-8382-23b92f8f0cc0}; !- Layer 4

OS:StandardsInformation:Construction,
  {8b0200e9-7a27-4297-85bb-a97a3b9c775b}, !- Handle
  {c85a9726-7c62-434a-8d12-11c299ac6161}, !- Construction Name
  ExteriorWall,                           !- Intended Surface Type
  Mass;                                   !- Standards Construction Type

OS:Construction,
  {b8cdc4ed-7914-4e83-9093-811fd7cb6ddb}, !- Handle
  ASHRAE 189.1-2009 ExtWall Mass ClimateZone alt-res 6, !- Name
  ,                                       !- Surface Rendering Name
  {e620b1dd-d7d9-440f-bc51-2573b97120e4}, !- Layer 1
  {3e22900a-f52f-4a15-a0a8-0b1a41c08cbc}, !- Layer 2
  {d7ebd3b0-87f3-49e1-adef-d50de22d6005}, !- Layer 3
  {b53954cf-b065-48a4-8382-23b92f8f0cc0}; !- Layer 4

OS:StandardsInformation:Construction,
  {d86cb0aa-24c4-4871-abce-4a906b29adfd}, !- Handle
  {b8cdc4ed-7914-4e83-9093-811fd7cb6ddb}, !- Construction Name
  ExteriorWall,                           !- Intended Surface Type
  Mass;                                   !- Standards Construction Type

OS:Construction,
  {5a154aec-9e44-4e1f-9911-835eb0f87fd5}, !- Handle
  ASHRAE 189.1-2009 ExtWall Mass ClimateZone alt-res 7, !- Name
  ,                                       !- Surface Rendering Name
  {e620b1dd-d7d9-440f-bc51-2573b97120e4}, !- Layer 1
  {3e22900a-f52f-4a15-a0a8-0b1a41c08cbc}, !- Layer 2
  {d7ebd3b0-87f3-49e1-adef-d50de22d6005}, !- Layer 3
  {b53954cf-b065-48a4-8382-23b92f8f0cc0}; !- Layer 4

OS:StandardsInformation:Construction,
  {1734019c-b7c9-43b2-9bef-aa4bb8f6f144}, !- Handle
  {5a154aec-9e44-4e1f-9911-835eb0f87fd5}, !- Construction Name
  ExteriorWall,                           !- Intended Surface Type
  Mass;                                   !- Standards Construction Type

OS:Construction,
  {08ee6c53-a0af-4567-8537-24bec8742336}, !- Handle
  ASHRAE 189.1-2009 ExtWall Mass ClimateZone alt-res 8, !- Name
  ,                                       !- Surface Rendering Name
  {e620b1dd-d7d9-440f-bc51-2573b97120e4}, !- Layer 1
  {3e22900a-f52f-4a15-a0a8-0b1a41c08cbc}, !- Layer 2
  {0498ac17-7641-42bd-910e-c43d29d7fd07}, !- Layer 3
  {b53954cf-b065-48a4-8382-23b92f8f0cc0}; !- Layer 4

OS:StandardsInformation:Construction,
  {04611367-ec86-4613-8e35-4e2e6461998b}, !- Handle
  {08ee6c53-a0af-4567-8537-24bec8742336}, !- Construction Name
  ExteriorWall,                           !- Intended Surface Type
  Mass;                                   !- Standards Construction Type

OS:Material,
  {0498ac17-7641-42bd-910e-c43d29d7fd07}, !- Handle