
OS:Version,
  {14f25689-0276-4fe0-a1de-bcc71f9e39c5}, !- Handle
  1.3.3;                                  !- Version Identifier

OS:Construction,
  {173ae4e6-c6e9-4b6d-ae57-aa8a5065a4a0}, !- Handle
  ASHRAE 189.1-2009 AtticFloor ClimateZone 1-8, !- Name
  ,                                       !- Surface Rendering Name
  {e017697d-0330-44e0-8edb-4debbc0a00c8}, !- Layer 1
  {a5ca21d0-0dbd-4a74-a55a-1a3c41195061}, !- Layer 2
  {e017697d-0330-44e0-8edb-4debbc0a00c8}; !- Layer 3

OS:StandardsInformation:Construction,
  {0883e918-0ec9-449d-b872-7df69282f001}, !- Handle
  {173ae4e6-c6e9-4b6d-ae57-aa8a5065a4a0}, !- Construction Name
  AtticFloor,                             !- Intended Surface Type
  WoodFramed;                             !- Standards Construction Type

OS:Material,
  {e017697d-0330-44e0-8edb-4debbc0a00c8}, !- Handle
  1/2IN Gypsum,                           !- Name
  Smooth,                                 !- Roughness
  0.0127,                                 !- Thickness {m}
  0.16,                                   !- Conductivity {W/m-K}
  784.9,                                  !- Density {kg/m3}
  830.000000000001,                       !- Specific Heat {J/kg-K}
  0.9,                                    !- Thermal Absorptance
  0.92,                                   !- Solar Absorptance
  0.92;                                   !- Visible Absorptance

OS:Material,
  {a5ca21d0-0dbd-4a74-a55a-1a3c41195061}, !- Handle
  AtticFloor Insulation,                  !- Name
  MediumRough,                            !- Roughness
  0.2379,                                 !- Thickness {m}
  0.049,                                  !- Conductivity {W/m-K}
  265,                                    !- Density {kg/m3}
  836.800000000001,                       !- Specific Heat {J/kg-K}
  0.9,                                    !- Thermal Absorptance
  0.7,                                    !- Solar Absorptance
  0.7;                                    !- Visible Absorptance

OS:Construction,
  {3077d7ce-ebe9-4645-8c6f-c74e95c8b9a2}, !- Handle
  ASHRAE 189.1-2009 ExtRoof IEAD ClimateZone 1, !- Name
  ,                                       !- Surface Rendering Name
  {96daf24d-0dfb-44a6-9634-d9475d4ce3db}, !- Layer 1
  {9ef6a68d-a272-4be1-a29f-3e130c88e2b1}, !- Layer 2
  {c14b3fa4-c223-42cc-8dc1-eaa779a4916b}; !- Layer 3

OS:StandardsInformation:Construction,
  {222a2125-8cf9-4bd2-920d-2c36909f577f}, !- Handle
  {3077d7ce-ebe9-4645-8c6f-c74e95c8b9a2}, !- Construction Name
  ExteriorRoof,                           !- Intended Surface Type
  IEAD;                                   !- Standards Construction Type

OS:Material,
  {96daf24d-0dfb-44a6-9634-d9475d4ce3db}, !- Handle
  Roof Membrane,                          !- Name
  VeryRough,                              !- Roughness
  0.0095,                                 !- Thickness {m}
  0.16,                                   !- Conductivity {W/m-K}
  1121.29,                                !- Density {kg/m3}
  1460,                                   !- Specific Heat {J/kg-K}
  0.9,                                    !- Thermal Absorptance
  0.7,                                    !- Solar Absorptance
  0.7;                                    !- Visible Absorptance

OS:Material,
  {9ef6a68d-a272-4be1-a29f-3e130c88e2b1}, !- Handle
  Roof Insulation [18],                   !- Name
  MediumRough,                            !- Roughness
  0.1693,                                 !- Thickness {m}
  0.049,                                  !- Conductivity {W/m-K}
  265,                                    !- Density {kg/m3}
  836.800000000001,                       !- Specific Heat {J/kg-K}
  0.9,                                    !- Thermal Absorptance
  0.7,                                    !- Solar Absorptance
  0.7;                                    !- Visible Absorptance

OS:Material,
  {c14b3fa4-c223-42cc-8dc1-eaa779a4916b}, !- Handle
  Metal Decking,                          !- Name
  MediumSmooth,                           !- Roughness
  0.0015,                                 !- Thickness {m}
  45.006,                                 !- Conductivity {W/m-K}
  7680,                                   !- Density {kg/m3}
  418.4,                                  !- Specific Heat {J/kg-K}
  0.9,                                    !- Thermal Absorptance
  0.7,                                    !- Solar Absorptance
  0.3;                                    !- Visible Absorptance

OS:Construction,
  {4d3a84fb-6024-42c1-b572-59710169ea3c}, !- Handle
  ASHRAE 189.1-2009 ExtRoof IEAD ClimateZone 2-5, !- Name
  ,                                       !- Surface Rendering Name
  {96daf24d-0dfb-44a6-9634-d9475d4ce3db}, !- Layer 1
  {527ef213-5e41-4ae7-a362-5381ec8eca70}, !- Layer 2
  {c14b3fa4-c223-42cc-8dc1-eaa779a4916b}; !- Layer 3

OS:StandardsInformation:Construction,
  {1a319864-96a1-4612-a4bf-cdb3eee0c6f8}, !- Handle
  {4d3a84fb-6024-42c1-b572-59710169ea3c}, !- Construction Name
  ExteriorRoof,                           !- Intended Surface Type
  IEAD;                                   !- Standards Construction Type

OS:Material,
  {527ef213-5e41-4ae7-a362-5381ec8eca70}, !- Handle
  Roof Insulation [21],                   !- Name
  MediumRough,                            !- Roughness
  0.2105,                                 !- Thickness {m}
  0.049,                                  !- Conductivity {W/m-K}
  265,                                    !- Density {kg/m3}
  836.800000000001,                       !- Specific Heat {J/kg-K}
  0.9,                                    !- Thermal Absorptance
  0.7,                                    !- Solar Absorptance
  0.7;                                    !- Visible Absorptance

OS:Construction,
  {bebf79a6-4262-477b-a5d9-26c43265ff7e}, !- Handle
  ASHRAE 189.1-2009 ExtRoof IEAD ClimateZone 6, !- Name
  ,                                       !- Surface Rendering Name
  {96daf24d-0dfb-44a6-9634-d9475d4ce3db}, !- Layer 1
  {cd88bc8e-de70-4e79-b961-5b0de7e63ef7}, !- Layer 2
  {c14b3fa4-c223-42cc-8dc1-eaa779a4916b}; !- Layer 3

OS:StandardsInformation:Construction,
  {06d7ebb7-f9bd-446e-ac75-99dd7a7bb870}, !- Handle
  {bebf79a6-4262-477b-a5d9-26c43265ff7e}, !- Construction Name
  ExteriorRoof,                           !- Intended Surface Type
  IEAD;                                   !- Standards Construction Type

OS:Material,
  {cd88bc8e-de70-4e79-b961-5b0de7e63ef7}, !- Handle
  Roof Insulation [24],                   !- Name
  MediumRough,                            !- Roughness
  0.260100000000001,                      !- Thickness {m}
  0.049,                                  !- Conductivity {W/m-K}
  265,                                    !- Density {kg/m3}
  836.800000000001,                       !- Specific Heat {J/kg-K}
  0.9,                                    !- Thermal Absorptance
  0.7,                                    !- Solar Absorptance
  0.7;                                    !- Visible Absorptance

OS:Construction,
  {16813bac-e647-409c-b9d3-0d56c493d9b6}, !- Handle
  ASHRAE 189.1-2009 ExtRoof IEAD ClimateZone 7-8, !- Name
  ,                                       !- Surface Rendering Name
  {96daf24d-0dfb-44a6-9634-d9475d4ce3db}, !- Layer 1
  {f0e6a40f-4953-4e1a-9efe-1d6b5faa57a3}, !- Layer 2
  {c14b3fa4-c223-42cc-8dc1-eaa779a4916b}; !- Layer 3

OS:StandardsInformation:Construction,
  {a16d4d10-c5f7-43c3-9fa2-4f8bc3ee9f9f}, !- Handle
  {16813bac-e647-409c-b9d3-0d56c493d9b6}, !- Construction Name
  ExteriorRoof,                           !- Intended Surface Type
  IEAD;                                   !- Standards Construction Type

OS:Material,
  {f0e6a40f-4953-4e1a-9efe-1d6b5faa57a3}, !- Handle
  Roof Insulation [26],                   !- Name
  MediumRough,                            !- Roughness
  0.2941,                                 !- Thickness {m}
  0.049,                                  !- Conductivity {W/m-K}
  265,                                    !- Density {kg/m3}
  836.800000000001,                       !- Specific Heat {J/kg-K}
  0.9,                                    !- Thermal Absorptance
  0.7,                                    !- Solar Absorptance
  0.7;                                    !- Visible Absorptance

OS:Construction,
  {b9f94193-7f70-4e0b-a279-6131adbb4e54}, !- Handle
  ASHRAE 189.1-2009 ExtRoof Metal ClimateZone 1, !- Name
  ,                                       !- Surface Rendering Name
  {b22b86dc-182f-49ef-93f1-07e792b6457e}, !- Layer 1
  {6c41dd82-4d92-462c-a7a9-0fb644544236}; !- Layer 2

OS:StandardsInformation:Construction,
  {2d321d38-57cd-4f6e-8825-9bfd6c370598}, !- Handle
  {b9f94193-7f70-4e0b-a279-6131adbb4e54}, !- Construction Name
  ExteriorRoof,                           !- Intended Surface Type
  Metal;                                  !- Standards Construction Type

OS:Material,
  {b22b86dc-182f-49ef-93f1-07e792b6457e}, !- Handle
  Metal Roofing,                          !- Name
  MediumSmooth,                           !- Roughness
  0.0015,                                 !- Thickness {m}
  45.006,                                 !- Conductivity {W/m-K}
  7680,                                   !- Density {kg/m3}
  418.4,                                  !- Specific Heat {J/kg-K}
  0.9,                                    !- Thermal Absorptance
  0.3,                                    !- Solar Absorptance
  0.3;                                    !- Visible Absorptance

OS:Material,
  {6c41dd82-4d92-462c-a7a9-0fb644544236}, !- Handle
  Roof Insulation [19],                   !- Name
  MediumRough,                            !- Roughness
  0.1868,                                 !- Thickness {m}
  0.049,                                  !- Conductivity {W/m-K}
  265,                                    !- Density {kg/m3}
  836.800000000001,                       !- Specific Heat {J/kg-K}
  0.9,                                    !- Thermal Absorptance
  0.7,                                    !- Solar Absorptance
  0.7;                                    !- Visible Absorptance

OS:Construction,
  {8ce0185a-5786-478c-9851-1474f412cc85}, !- Handle
  ASHRAE 189.1-2009 ExtRoof Metal ClimateZone 2-5, !- Name
  ,                                       !- Surface Rendering Name
  {b22b86dc-182f-49ef-93f1-07e792b6457e}, !- Layer 1
  {0196b413-a05d-4097-9bdb-5c77db598bd1}; !- Layer 2

OS:StandardsInformation:Construction,
  {67f400df-7ac7-488a-b7bf-cf8b588eeb23}, !- Handle
  {8ce0185a-5786-478c-9851-1474f412cc85}, !- Construction Name
  ExteriorRoof,                           !- Intended Surface Type
  Metal;                                  !- Standards Construction Type

OS:Material,
  {0196b413-a05d-4097-9bdb-5c77db598bd1}, !- Handle
  Roof Insulation [22],                   !- Name
  MediumRough,                            !- Roughness
  0.2358,                                 !- Thickness {m}
  0.049,                                  !- Conductivity {W/m-K}
  265,                                    !- Density {kg/m3}
  836.800000000001,                       !- Specific Heat {J/kg-K}
  0.9,                                    !- Thermal Absorptance
  0.7,                                    !- Solar Absorptance
  0.7;                                    !- Visible Absorptance

OS:Construction,
  {53a74e52-7376-42d6-b071-97f5da7b7a12}, !- Handle
  ASHRAE 189.1-2009 ExtRoof Metal ClimateZone 6, !- Name
  ,                                       !- Surface Rendering Name
  {b22b86dc-182f-49ef-93f1-07e792b6457e}, !- Layer 1
  {109fbb1d-f6c0-484f-af08-db8c43505d03}; !- Layer 2

OS:StandardsInformation:Construction,
  {d9bae199-d0e5-45bd-8367-7245ab3098b4}, !- Handle
  {53a74e52-7376-42d6-b071-97f5da7b7a12}, !- Construction Name
  ExteriorRoof,                           !- Intended Surface Type
  Metal;                                  !- Standards Construction Type

OS:Material,
  {109fbb1d-f6c0-484f-af08-db8c43505d03}, !- Handle
  Roof Insulation [25],                   !- Name
  MediumRough,                            !- Roughness
  0.263,                                  !- Thickness {m}
  0.049,                                  !- Conductivity {W/m-K}
  265,                                    !- Density {kg/m3}
  836.800000000001,                       !- Specific Heat {J/kg-K}
  0.9,                                    !- Thermal Absorptance
  0.7,                                    !- Solar Absorptance
  0.7;                                    !- Visible Absorptance

OS:Construction,
  {f7332f27-2ceb-4ed3-a53c-54d826f4a375}, !- Handle
  ASHRAE 189.1-2009 ExtRoof Metal ClimateZone 7-8, !- Name
  ,                                       !- Surface Rendering Name
  {b22b86dc-182f-49ef-93f1-07e792b6457e}, !- Layer 1
  {4a585ade-9ec9-4a35-b65b-119062239f20}; !- Layer 2

OS:StandardsInformation:Construction,
  {237589fb-d500-49b6-a75c-14f76aef55c4}, !- Handle
  {f7332f27-2ceb-4ed3-a53c-54d826f4a375}, !- Construction Name
  ExteriorRoof,                           !- Intended Surface Type
  Metal;                                  !- Standards Construction Type

OS:Material,
  {4a585ade-9ec9-4a35-b65b-119062239f20}, !- Handle
  Roof Insulation [27],                   !- Name
  MediumRough,                            !- Roughness
  0.297000000000001,                      !- Thickness {m}
  0.049,                                  !- Conductivity {W/m-K}
  265,                                    !- Density {kg/m3}
  836.800000000001,                       !- Specific Heat {J/kg-K}
  0.9,                                    !- Thermal Absorptance
  0.7,                                    !- Solar Absorptance
  0.7;                                    !- Visible Absorptance

OS:Construction,
  {1fc9c648-be9d-4f30-a1b3-e8d174304d78}, !- Handle
  ASHRAE 189.1-2009 ExtWall Mass ClimateZone 1, !- Name
  ,                                       !- Surface Rendering Name
  {faf90127-1017-4afa-9d90-fd218220df24}, !- Layer 1
  {7df24bb4-0147-403b-a65c-32f590a2153a}, !- Layer 2
  {c0b6f48c-82cc-4ee9-bd3d-ed7152dda3a6}, !- Layer 3
  {e017697d-0330-44e0-8edb-4debbc0a00c8}; !- Layer 4

OS:StandardsInformation:Construction,
  {897f2c0c-fb6f-4c5f-bb3b-4d4f8ce47754}, !- Handle
  {1fc9c648-be9d-4f30-a1b3-e8d174304d78}, !- Construction Name
  ExteriorWall,                           !- Intended Surface Type
  Mass;                                   !- Standards Construction Type

OS:Material,
  {faf90127-1017-4afa-9d90-fd218220df24}, !- Handle
  1IN Stucco,                             !- Name
  Smooth,                                 !- Roughness
  0.0253,                                 !- Thickness {m}
  0.691799999999999,                      !- Conductivity {W/m-K}
  1858,                                   !- Density {kg/m3}
  836.999999999999,                       !- Specific Heat {J/kg-K}
  0.9,                                    !- Thermal Absorptance
  0.92,                                   !- Solar Absorptance
  0.92;                                   !- Visible Absorptance

OS:Material,
  {7df24bb4-0147-403b-a65c-32f590a2153a}, !- Handle
  8IN Concrete HW,                        !- Name
  MediumRough,                            !- Roughness
  0.2033,                                 !- Thickness {m}
  1.72959999999999,                       !- Conductivity {W/m-K}
  2242.99999999999,                       !- Density {kg/m3}
  836.999999999999,                       !- Specific Heat {J/kg-K}
  0.9,                                    !- Thermal Absorptance
  0.65,                                   !- Solar Absorptance
  0.65;                                   !- Visible Absorptance

OS:Material,
  {c0b6f48c-82cc-4ee9-bd3d-ed7152dda3a6}, !- Handle
  Wall Insulation [31],                   !- Name
  MediumRough,                            !- Roughness
  0.0337000000000001,                     !- Thickness {m}
  0.0432,                                 !- Conductivity {W/m-K}
  91,                                     !- Density {kg/m3}
  836.999999999999,                       !- Specific Heat {J/kg-K}
  0.9,                                    !- Thermal Absorptance
  0.5,                                    !- Solar Absorptance
  0.5;                                    !- Visible Absorptance

OS:Construction,
  {29eb296d-c8b2-42a0-b5fe-d32b8df94c82}, !- Handle
  ASHRAE 189.1-2009 ExtWall Mass ClimateZone 2, !- Name
  ,                                       !- Surface Rendering Name
  {faf90127-1017-4afa-9d90-fd218220df24}, !- Layer 1
  {7df24bb4-0147-403b-a65c-32f590a2153a}, !- Layer 2
  {6adbfcde-c086-48ae-a13d-05f8c21bccd7}, !- Layer 3
  {e017697d-0330-44e0-8edb-4debbc0a00c8}; !- Layer 4

OS:StandardsInformation:Construction,
  {721eb6a4-7d29-45ab-85e3-3dc3c775c319}, !- Handle
  {29eb296d-c8b2-42a0-b5fe-d32b8df94c82}, !- Construction Name
  ExteriorWall,                           !- Intended Surface Type
  Mass;                                   !- Standards Construction Type

OS:Material,
  {6adbfcde-c086-48ae-a13d-05f8c21bccd7}, !- Handle
  Wall Insulation [35],                   !- Name
  MediumRough,                            !- Roughness
  0.0452,                                 !- Thickness {m}
  0.0432,                                 !- Conductivity {W/m-K}
  91,                                     !- Density {kg/m3}
  836.999999999999,                       !- Specific Heat {J/kg-K}
  0.9,                                    !- Thermal Absorptance
  0.5,                                    !- Solar Absorptance
  0.5;                                    !- Visible Absorptance

OS:Construction,
  {49099099-b146-4f16-b081-156cb9d5926b}, !- Handle
  ASHRAE 189.1-2009 ExtWall Mass ClimateZone 3, !- Name
  ,                                       !- Surface Rendering Name
  {faf90127-1017-4afa-9d90-fd218220df24}, !- Layer 1
  {7df24bb4-0147-403b-a65c-32f590a2153a}, !- Layer 2
  {ad58ce2a-b4ea-47b8-98c8-b3759b735264}, !- Layer 3
  {e017697d-0330-44e0-8edb-4debbc0a00c8}; !- Layer 4

OS:StandardsInformation:Construction,
  {4a937404-66cd-47cd-93a5-6e40aedd87fa}, !- Handle
  {49099099-b146-4f16-b081-156cb9d5926b}, !- Construction Name
  ExteriorWall,                           !- Intended Surface Type
  Mass;                                   !- Standards Construction Type

OS:Material,
  {ad58ce2a-b4ea-47b8-98c8-b3759b735264}, !- Handle
  Wall Insulation [36],                   !- Name
  MediumRough,                            !- Roughness
  0.0565999999999999,                     !- Thickness {m}
  0.0432,                                 !- Conductivity {W/m-K}
  91,                                     !- Density {kg/m3}
  836.999999999999,                       !- Specific Heat {J/kg-K}
  0.9,                                    !- Thermal Absorptance
  0.5,                                    !- Solar Absorptance
  0.5;                                    !- Visible Absorptance

OS:Construction,
  {11621b56-a074-4d85-a092-4e97de987126}, !- Handle
  ASHRAE 189.1-2009 ExtWall Mass ClimateZone 4, !- Name
  ,                                       !- Surface Rendering Name
  {faf90127-1017-4afa-9d90-fd218220df24}, !- Layer 1
  {7df24bb4-0147-403b-a65c-32f590a2153a}, !- Layer 2
  {9851a89c-21c3-444f-9431-16c4a127837f}, !- Layer 3
  {e017697d-0330-44e0-8edb-4debbc0a00c8}; !- Layer 4

OS:StandardsInformation:Construction,
  {1ef79005-9809-42da-aecb-65b74009ab9a}, !- Handle
  {11621b56-a074-4d85-a092-4e97de987126}, !- Construction Name
  ExteriorWall,                           !- Intended Surface Type
  Mass;                                   !- Standards Construction Type

OS:Material,
  {9851a89c-21c3-444f-9431-16c4a127837f}, !- Handle
  Wall Insulation [37],                   !- Name
  MediumRough,                            !- Roughness
  0.0680999999999999,                     !- Thickness {m}
  0.0432,                                 !- Conductivity {W/m-K}
  91,                                     !- Density {kg/m3}
  836.999999999999,                       !- Specific Heat {J/kg-K}
  0.9,                                    !- Thermal Absorptance
  0.5,                                    !- Solar Absorptance
  0.5;                                    !- Visible Absorptance

OS:Construction,
  {a7b51c31-9b4c-4f12-a774-f0222fbbb79e}, !- Handle
  ASHRAE 189.1-2009 ExtWall Mass ClimateZone 5, !- Name
  ,                                       !- Surface Rendering Name
  {faf90127-1017-4afa-9d90-fd218220df24}, !- Layer 1
  {7df24bb4-0147-403b-a65c-32f590a2153a}, !- Layer 2
  {9e69279b-8a68-4b75-9ea0-dbb8ae606c4e}, !- Layer 3
  {e017697d-0330-44e0-8edb-4debbc0a00c8}; !- Layer 4

OS:StandardsInformation:Construction,
  {bf0ac9ea-5901-4c79-8a95-3886dead7b92}, !- Handle
  {a7b51c31-9b4c-4f12-a774-f0222fbbb79e}, !- Construction Name
  ExteriorWall,                           !- Intended Surface Type
  Mass;                                   !- Standards Construction Type

OS:Material,
  {9e69279b-8a68-4b75-9ea0-dbb8ae606c4e}, !- Handle
  Wall Insulation [40],                   !- Name
  MediumRough,                            !- Roughness
  0.0793999999999999,                     !- Thickness {m}
  0.0432,                                 !- Conductivity {W/m-K}
  91,                                     !- Density {kg/m3}
  836.999999999999,                       !- Specific Heat {J/kg-K}
  0.9,                                    !- Thermal Absorptance
  0.5,                                    !- Solar Absorptance
  0.5;                                    !- Visible Absorptance

OS:Construction,
  {63ed80dd-f30c-4218-a7eb-23251b01391a}, !- Handle
  ASHRAE 189.1-2009 ExtWall Mass ClimateZone 6, !- Name
  ,                                       !- Surface Rendering Name
  {faf90127-1017-4afa-9d90-fd218220df24}, !- Layer 1
  {7df24bb4-0147-403b-a65c-32f590a2153a}, !- Layer 2
  {861bb673-33f7-4eba-a444-cb1bcd9df913}, !- Layer 3
  {e017697d-0330-44e0-8edb-4debbc0a00c8}; !- Layer 4

OS:StandardsInformation:Construction,
  {ff349005-2cdc-4ff6-865a-f45060deeecc}, !- Handle
  {63ed80dd-f30c-4218-a7eb-23251b01391a}, !- Construction Name
  ExteriorWall,                           !- Intended Surface Type
  Mass;                                   !- Standards Construction Type

OS:Material,
  {861bb673-33f7-4eba-a444-cb1bcd9df913}, !- Handle
  Wall Insulation [42],                   !- Name
  MediumRough,                            !- Roughness
  0.0913999999999999,                     !- Thickness {m}
  0.0432,                                 !- Conductivity {W/m-K}
  91,                                     !- Density {kg/m3}
  836.999999999999,                       !- Specific Heat {J/kg-K}
  0.9,                                    !- Thermal Absorptance
  0.5,                                    !- Solar Absorptance
  0.5;                                    !- Visible Absorptance

OS:Construction,
  {a8c072ea-730c-48d1-a212-3cd10ee69b79}, !- Handle
  ASHRAE 189.1-2009 ExtWall Mass ClimateZone 7-8, !- Name
  ,                                       !- Surface Rendering Name
  {faf90127-1017-4afa-9d90-fd218220df24}, !- Layer 1
  {7df24bb4-0147-403b-a65c-32f590a2153a}, !- Layer 2
  {daa14f1b-c50c-468b-9b89-114f1a314bbd}, !- Layer 3
  {e017697d-0330-44e0-8edb-4debbc0a00c8}; !- Layer 4

OS:StandardsInformation:Construction,
  {5ac2b509-7eda-441e-b236-9fba0bb8d5d5}, !- Handle
  {a8c072ea-730c-48d1-a212-3cd10ee69b79}, !- Construction Name
  ExteriorWall,                           !- Intended Surface Type
  Mass;                                   !- Standards Construction Type

OS:Material,
  {daa14f1b-c50c-468b-9b89-114f1a314bbd}, !- Handle
  Wall Insulation [44],                   !- Name
  MediumRough,                            !- Roughness
  0.1104,                                 !- Thickness {m}
  0.0432,                                 !- Conductivity {W/m-K}
  91,                                     !- Density {kg/m3}
  836.999999999999,                       !- Specific Heat {J/kg-K}
  0.9,                                    !- Thermal Absorptance
  0.5,                                    !- Solar Absorptance
  0.5;                                    !- Visible Absorptance

OS:Construction,
  {bd1f0aa1-257d-405e-b915-18f94f9a8dad}, !- Handle
  ASHRAE 189.1-2009 ExtWall Mass ClimateZone alt-res 1, !- Name
  ,                                       !- Surface Rendering Name
  {faf90127-1017-4afa-9d90-fd218220df24}, !- Layer 1
  {7df24bb4-0147-403b-a65c-32f590a2153a}, !- Layer 2
  {6adbfcde-c086-48ae-a13d-05f8c21bccd7}, !- Layer 3
  {e017697d-0330-44e0-8edb-4debbc0a00c8}; !- Layer 4

OS:StandardsInformation:Construction,
  {e8c40d6f-13bb-428d-9338-072527555116}, !- Handle
  {bd1f0aa1-257d-405e-b915-18f94f9a8dad}, !- Construction Name
  ExteriorWall,                           !- Intended Surface Type
  Mass;                                   !- Standards Construction Type

OS:Construction,
  {e0ad7022-0803-47a4-8c54-d90659351b62}, !- Handle
  ASHRAE 189.1-2009 ExtWall Mass ClimateZone alt-res 2, !- Name
  ,                                       !- Surface Rendering Name
  {faf90127-1017-4afa-9d90-fd218220df24}, !- Layer 1
  {7df24bb4-0147-403b-a65c-32f590a2153a}, !- Layer 2
  {ad58ce2a-b4ea-47b8-98c8-b3759b735264}, !- Layer 3
  {e017697d-0330-44e0-8edb-4debbc0a00c8}; !- Layer 4

OS:StandardsInformation:Construction,
  {8d3a9119-0668-4dae-b12f-729a18e9ac5b}, !- Handle
  {e0ad7022-0803-47a4-8c54-d90659351b62}, !- Construction Name
  ExteriorWall,                           !- Intended Surface Type
  Mass;                                   !- Standards Construction Type

OS:Construction,
  {dcc7558a-106a-4f07-81e9-d939be046034}, !- Handle
  ASHRAE 189.1-2009 ExtWall Mass ClimateZone alt-res 3, !- Name
  ,                                       !- Surface Rendering Name
  {faf90127-1017-4afa-9d90-fd218220df24}, !- Layer 1
  {7df24bb4-0147-403b-a65c-32f590a2153a}, !- Layer 2
  {9851a89c-21c3-444f-9431-16c4a127837f}, !- Layer 3
  {e017697d-0330-44e0-8edb-4debbc0a00c8}; !- Layer 4

OS:StandardsInformation:Construction,
  {4a043526-30b5-41c1-9575-13c991af2506}, !- Handle
  {dcc7558a-106a-4f07-81e9-d939be046034}, !- Construction Name
  ExteriorWall,                           !- Intended Surface Type
  Mass;                                   !- Standards Construction Type

OS:Construction,
  {d041d52d-650f-4c08-a784-604a6d51721e}, !- Handle
  ASHRAE 189.1-2009 ExtWall Mass ClimateZone alt-res 4, !- Name
  ,                                       !- Surface Rendering Name
  {faf90127-1017-4afa-9d90-fd218220df24}, !- Layer 1
  {7df24bb4-0147-403b-a65c-32f590a2153a}, !- Layer 2
  {9e69279b-8a68-4b75-9ea0-dbb8ae606c4e}, !- Layer 3
  {e017697d-0330-44e0-8edb-4debbc0a00c8}; !- Layer 4

OS:StandardsInformation:Construction,
  {76a5c363-8040-4cea-b501-cdeed02baa3f}, !- Handle
  {d041d52d-650f-4c08-a784-604a6d51721e}, !- Construction Name
  ExteriorWall,                           !- Intended Surface Type
  Mass;                                   !- Standards Construction Type

OS:Construction,
  {1b38a18c-6e6c-4dd3-97d9-9a873d69050a}, !- Handle
  ASHRAE 189.1-2009 ExtWall Mass ClimateZone alt-res 5, !- Name
  ,                                       !- Surface Rendering Name
  {faf90127-1017-4afa-9d90-fd218220df24}, !- Layer 1
  {7df24bb4-0147-403b-a65c-32f590a2153a}, !- Layer 2
  {861bb673-33f7-4eba-a444-cb1bcd9df913}, !- Layer 3
  {e017697d-0330-44e0-8edb-4debbc0a00c8}; !- Layer 4

OS:StandardsInformation:Construction,
  {07fc6226-5a16-4c0b-b26d-a9f669d34075}, !- Handle
  {1b38a18c-6e6c-4dd3-97d9-9a873d69050a}, !- Construction Name
  ExteriorWall,                           !- Intended Surface Type
  Mass;                                   !- Standards Construction Type

OS:Construction,
  {774e875f-8721-4386-9224-0df4073f303a}, !- Handle
  ASHRAE 189.1-2009 ExtWall Mass ClimateZone alt-res 6, !- Name
  ,                                       !- Surface Rendering Name
  {faf90127-1017-4afa-9d90-fd218220df24}, !- Layer 1
  {7df24bb4-0147-403b-a65c-32f590a2153a}, !- Layer 2
  {daa14f1b-c50c-468b-9b89-114f1a314bbd}, !- Layer 3
  {e017697d-0330-44e0-8edb-4debbc0a00c8}; !- Layer 4

OS:StandardsInformation:Construction,
  {cbcd0a6f-7b50-4ab0-93d7-d864e74dc48b}, !- Handle
  {774e875f-8721-4386-9224-0df4073f303a}, !- Construction Name
  ExteriorWall,                           !- Intended Surface Type
  Mass;                                   !- Standards Construction Type

OS:Construction,
  {48abe0fd-3a7a-4632-9287-e74c7eb366e5}, !- Handle
  ASHRAE 189.1-2009 ExtWall Mass ClimateZone alt-res 7, !- Name
  ,                                       !- Surface Rendering Name
  {faf90127-1017-4afa-9d90-fd218220df24}, !- Layer 1
  {7df24bb4-0147-403b-a65c-32f590a2153a}, !- Layer 2
  {daa14f1b-c50c-468b-9b89-114f1a314bbd}, !- Layer 3
  {e017697d-0330-44e0-8edb-4debbc0a00c8}; !- Layer 4

OS:StandardsInformation:Construction,
  {3fba5950-03fe-4579-9289-4ff978c66ea2}, !- Handle
  {48abe0fd-3a7a-4632-9287-e74c7eb366e5}, !- Construction Name
  ExteriorWall,                           !- Intended Surface Type
  Mass;                                   !- Standards Construction Type

OS:Construction,
  {b14246a5-97b6-41f1-8831-9d449bb80d42}, !- Handle
  ASHRAE 189.1-2009 ExtWall Mass ClimateZone alt-res 8, !- Name
  ,                                       !- Surface Rendering Name
  {faf90127-1017-4afa-9d90-fd218220df24}, !- Layer 1
  {7df24bb4-0147-403b-a65c-32f590a2153a}, !- Layer 2
  {9a5f255f-cf4b-41b0-b646-f610b70d440f}, !- Layer 3
  {e017697d-0330-44e0-8edb-4debbc0a00c8}; !- Layer 4

OS:StandardsInformation:Construction,
  {1d050f7f-676c-4481-8608-f304425edda5}, !- Handle
  {b14246a5-97b6-41f1-8831-9d449bb80d42}, !- Construction Name
  ExteriorWall,                           !- Intended Surface Type
  Mass;                                   !- Standards Construction Type

OS:Material,
  {9a5f255f-cf4b-41b0-b646-f610b70d440f}, !- Handle