
OS:Version,
  {119f3ac8-842e-455a-bd11-29937c191a4d}, !- Handle
  2.3.0;                                  !- Version Identifier

OS:Construction,
  {d40ed2fa-6e8d-4499-ab3a-2bcf1f383e36}, !- Handle
  ASHRAE 189.1-2009 AtticFloor ClimateZone 1-8, !- Name
  ,                                       !- Surface Rendering Name
  {ca8a182d-6baa-4755-a6c3-25cf72713114}, !- Layer 1
  {0eb8516d-0a6f-459b-adc0-7709a6a0d988}, !- Layer 2
  {ca8a182d-6baa-4755-a6c3-25cf72713114}; !- Layer 3

OS:StandardsInformation:Construction,
  {c8a635f2-1bae-4718-89d9-25bd80f1e6a1}, !- Handle
  {d40ed2fa-6e8d-4499-ab3a-2bcf1f383e36}, !- Construction Name
  AtticFloor,                             !- Intended Surface Type
  WoodFramed,                             !- Standards Construction Type
  ,                                       !- Perturbable Layer
  ,                                       !- Perturbable Layer Type
  ,                                       !- Other Perturbable Layer Type
  ASHRAE 189.1-2009;                      !- Construction Standard

OS:Material,
  {ca8a182d-6baa-4755-a6c3-25cf72713114}, !- Handle
  1/2IN Gypsum,                           !- Name
  Smooth,                                 !- Roughness
  0.0127,                                 !- Thickness {m}
  0.16,                                   !- Conductivity {W/m-K}
  784.9,                                  !- Density {kg/m3}
  830.000000000001,                       !- Specific Heat {J/kg-K}
  0.9,                                    !- Thermal Absorptance
  0.4,                                    !- Solar Absorptance
  0.4;                                    !- Visible Absorptance

OS:StandardsInformation:Material,
  {e88b490e-e06f-4d02-9f21-37adaed2f30e}, !- Handle
  {ca8a182d-6baa-4755-a6c3-25cf72713114}; !- Material Name

OS:Material,
  {0eb8516d-0a6f-459b-adc0-7709a6a0d988}, !- Handle
  AtticFloor Insulation,                  !- Name
  MediumRough,                            !- Roughness
  0.2379,                                 !- Thickness {m}
  0.049,                                  !- Conductivity {W/m-K}
  265,                                    !- Density {kg/m3}
  836.800000000001,                       !- Specific Heat {J/kg-K}
  0.9,                                    !- Thermal Absorptance
  0.7,                                    !- Solar Absorptance
  0.7;                                    !- Visible Absorptance

OS:StandardsInformation:Material,
  {a9c670b0-e230-414b-b2f7-330c289c8298}, !- Handle
  {0eb8516d-0a6f-459b-adc0-7709a6a0d988}; !- Material Name

OS:Construction,
  {a19caa1f-4b7b-4db3-85fe-3cad01b9ac1d}, !- Handle
  ASHRAE 189.1-2009 ExtRoof IEAD ClimateZone 1, !- Name
  ,                                       !- Surface Rendering Name
  {9facc18a-9c71-4213-a1a4-147911a3caed}, !- Layer 1
  {bc191516-7c48-4045-a0fc-dd668e2d0909}, !- Layer 2
  {2c828f3e-f49f-4e3e-a380-978467c09016}; !- Layer 3

OS:StandardsInformation:Construction,
  {ba77f622-ae31-4da2-930b-9742e9732791}, !- Handle
  {a19caa1f-4b7b-4db3-85fe-3cad01b9ac1d}, !- Construction Name
  ExteriorRoof,                           !- Intended Surface Type
  IEAD,                                   !- Standards Construction Type
  ,                                       !- Perturbable Layer
  ,                                       !- Perturbable Layer Type
  ,                                       !- Other Perturbable Layer Type
  ASHRAE 189.1-2009;                      !- Construction Standard

OS:Material,
  {9facc18a-9c71-4213-a1a4-147911a3caed}, !- Handle
  Roof Membrane,                          !- Name
  VeryRough,                              !- Roughness
  0.0095,                                 !- Thickness {m}
  0.16,                                   !- Conductivity {W/m-K}
  1121.29,                                !- Density {kg/m3}
  1460,                                   !- Specific Heat {J/kg-K}
  0.9,                                    !- Thermal Absorptance
  0.7,                                    !- Solar Absorptance
  0.7;                                    !- Visible Absorptance

OS:StandardsInformation:Material,
  {029b9064-3f95-4b71-b0f7-9f609173b0c6}, !- Handle
  {9facc18a-9c71-4213-a1a4-147911a3caed}; !- Material Name

OS:Material,
  {bc191516-7c48-4045-a0fc-dd668e2d0909}, !- Handle
  Roof Insulation [18],                   !- Name
  MediumRough,                            !- Roughness
  0.1693,                                 !- Thickness {m}
  0.049,                                  !- Conductivity {W/m-K}
  265,                                    !- Density {kg/m3}
  836.800000000001,                       !- Specific Heat {J/kg-K}
  0.9,                                    !- Thermal Absorptance
  0.7,                                    !- Solar Absorptance
  0.7;                                    !- Visible Absorptance

OS:StandardsInformation:Material,
  {f0043fa4-deff-47f5-9efa-9df590aa117e}, !- Handle
  {bc191516-7c48-4045-a0fc-dd668e2d0909}; !- Material Name

OS:Material,
  {2c828f3e-f49f-4e3e-a380-978467c09016}, !- Handle
  Metal Decking,                          !- Name
  MediumSmooth,                           !- Roughness
  0.0015,                                 !- Thickness {m}
  45.006,                                 !- Conductivity {W/m-K}
  7680,                                   !- Density {kg/m3}
  418.4,                                  !- Specific Heat {J/kg-K}
  0.9,                                    !- Thermal Absorptance
  0.6,                                    !- Solar Absorptance
  0.6;                                    !- Visible Absorptance

OS:StandardsInformation:Material,
  {53b788fc-4146-49a6-8c5b-42caf7d54100}, !- Handle
  {2c828f3e-f49f-4e3e-a380-978467c09016}; !- Material Name

OS:Construction,
  {2966d274-5c1f-41e1-8a45-3fb51c736df3}, !- Handle
  ASHRAE 189.1-2009 ExtRoof IEAD ClimateZone 2-5, !- Name
  ,                                       !- Surface Rendering Name
  {9facc18a-9c71-4213-a1a4-147911a3caed}, !- Layer 1
  {46bc40c1-8265-4ecb-b865-544f069a663d}, !- Layer 2
  {2c828f3e-f49f-4e3e-a380-978467c09016}; !- Layer 3

OS:StandardsInformation:Construction,
  {4e8fc60e-dddc-43b7-8ddd-bfb6cce29cc9}, !- Handle
  {2966d274-5c1f-41e1-8a45-3fb51c736df3}, !- Construction Name
  ExteriorRoof,                           !- Intended Surface Type
  IEAD,                                   !- Standards Construction Type
  ,                                       !- Perturbable Layer
  ,                                       !- Perturbable Layer Type
  ,                                       !- Other Perturbable Layer Type
  ASHRAE 189.1-2009;                      !- Construction Standard

OS:Material,
  {46bc40c1-8265-4ecb-b865-544f069a663d}, !- Handle
  Roof Insulation [21],                   !- Name
  MediumRough,                            !- Roughness
  0.2105,                                 !- Thickness {m}
  0.049,                                  !- Conductivity {W/m-K}
  265,                                    !- Density {kg/m3}
  836.800000000001,                       !- Specific Heat {J/kg-K}
  0.9,                                    !- Thermal Absorptance
  0.7,                                    !- Solar Absorptance
  0.7;                                    !- Visible Absorptance

OS:StandardsInformation:Material,
  {643ec455-a172-4bf4-bbf3-71fa1f9c86d5}, !- Handle
  {46bc40c1-8265-4ecb-b865-544f069a663d}; !- Material Name

OS:Construction,
  {07347b93-0337-4a6f-93bb-aca81ae05d7c}, !- Handle
  ASHRAE 189.1-2009 ExtRoof IEAD ClimateZone 6, !- Name
  ,                                       !- Surface Rendering Name
  {9facc18a-9c71-4213-a1a4-147911a3caed}, !- Layer 1
  {8531cc93-fe7d-413e-9e36-88e0b492627c}, !- Layer 2
  {2c828f3e-f49f-4e3e-a380-978467c09016}; !- Layer 3

OS:StandardsInformation:Construction,
  {583e1cfc-a2b6-42d8-82e1-77657794778a}, !- Handle
  {07347b93-0337-4a6f-93bb-aca81ae05d7c}, !- Construction Name
  ExteriorRoof,                           !- Intended Surface Type
  IEAD,                                   !- Standards Construction Type
  ,                                       !- Perturbable Layer
  ,                                       !- Perturbable Layer Type
  ,                                       !- Other Perturbable Layer Type
  ASHRAE 189.1-2009;                      !- Construction Standard

OS:Material,
  {8531cc93-fe7d-413e-9e36-88e0b492627c}, !- Handle
  Roof Insulation [24],                   !- Name
  MediumRough,                            !- Roughness
  0.260100000000001,                      !- Thickness {m}
  0.049,                                  !- Conductivity {W/m-K}
  265,                                    !- Density {kg/m3}
  836.800000000001,                       !- Specific Heat {J/kg-K}
  0.9,                                    !- Thermal Absorptance
  0.7,                                    !- Solar Absorptance
  0.7;                                    !- Visible Absorptance

OS:StandardsInformation:Material,
  {318d6bc9-008b-4873-b858-5062679520ad}, !- Handle
  {8531cc93-fe7d-413e-9e36-88e0b492627c}; !- Material Name

OS:Construction,
  {daf37dcd-90ff-4342-99af-efcbd9bff8f7}, !- Handle
  ASHRAE 189.1-2009 ExtRoof IEAD ClimateZone 7-8, !- Name
  ,                                       !- Surface Rendering Name
  {9facc18a-9c71-4213-a1a4-147911a3caed}, !- Layer 1
  {a6e1218f-e718-4098-8e4d-cadf6167bcb9}, !- Layer 2
  {2c828f3e-f49f-4e3e-a380-978467c09016}; !- Layer 3

OS:StandardsInformation:Construction,
  {8ca4f60b-c45f-4c73-be48-01406367e62a}, !- Handle
  {daf37dcd-90ff-4342-99af-efcbd9bff8f7}, !- Construction Name
  ExteriorRoof,                           !- Intended Surface Type
  IEAD,                                   !- Standards Construction Type
  ,                                       !- Perturbable Layer
  ,                                       !- Perturbable Layer Type
  ,                                       !- Other Perturbable Layer Type
  ASHRAE 189.1-2009;                      !- Construction Standard

OS:Material,
  {a6e1218f-e718-4098-8e4d-cadf6167bcb9}, !- Handle
  Roof Insulation [26],                   !- Name
  MediumRough,                            !- Roughness
  0.2941,                                 !- Thickness {m}
  0.049,                                  !- Conductivity {W/m-K}
  265,                                    !- Density {kg/m3}
  836.800000000001,                       !- Specific Heat {J/kg-K}
  0.9,                                    !- Thermal Absorptance
  0.7,                                    !- Solar Absorptance
  0.7;                                    !- Visible Absorptance

OS:StandardsInformation:Material,
  {76aa786d-ca4d-4bd1-a74c-b00a53abd96c}, !- Handle
  {a6e1218f-e718-4098-8e4d-cadf6167bcb9}; !- Material Name

OS:Construction,
  {3858db1b-c354-4a26-af74-3f4ba4d14279}, !- Handle
  ASHRAE 189.1-2009 ExtRoof Metal ClimateZone 1, !- Name
  ,                                       !- Surface Rendering Name
  {44c9e31c-9226-4af1-b3b4-7c02f647249d}, !- Layer 1
  {d15ab78d-b834-4fea-8f04-f553cfea8766}, !- Layer 2
  {2c828f3e-f49f-4e3e-a380-978467c09016}; !- Layer 3

OS:StandardsInformation:Construction,
  {b867d9a1-d0ae-4b97-938f-ff31d2282193}, !- Handle
  {3858db1b-c354-4a26-af74-3f4ba4d14279}, !- Construction Name
  ExteriorRoof,                           !- Intended Surface Type
  Metal,                                  !- Standards Construction Type
  ,                                       !- Perturbable Layer
  ,                                       !- Perturbable Layer Type
  ,                                       !- Other Perturbable Layer Type
  ASHRAE 189.1-2009;                      !- Construction Standard

OS:Material,
  {44c9e31c-9226-4af1-b3b4-7c02f647249d}, !- Handle
  Metal Roofing,                          !- Name
  MediumSmooth,                           !- Roughness
  0.0015,                                 !- Thickness {m}
  45.006,                                 !- Conductivity {W/m-K}
  7680,                                   !- Density {kg/m3}
  418.4,                                  !- Specific Heat {J/kg-K}
  0.9,                                    !- Thermal Absorptance
  0.6,                                    !- Solar Absorptance
  0.6;                                    !- Visible Absorptance

OS:StandardsInformation:Material,
  {655f6bb8-965f-4081-8783-637a24a2ad3c}, !- Handle
  {44c9e31c-9226-4af1-b3b4-7c02f647249d}; !- Material Name

OS:Material,
  {d15ab78d-b834-4fea-8f04-f553cfea8766}, !- Handle
  Roof Insulation [19],                   !- Name
  MediumRough,                            !- Roughness
  0.1868,                                 !- Thickness {m}
  0.049,                                  !- Conductivity {W/m-K}
  265,                                    !- Density {kg/m3}
  836.800000000001,                       !- Specific Heat {J/kg-K}
  0.9,                                    !- Thermal Absorptance
  0.7,                                    !- Solar Absorptance
  0.7;                                    !- Visible Absorptance

OS:StandardsInformation:Material,
  {102fed27-fbf8-4f19-a14a-7dd6bc4f5d22}, !- Handle
  {d15ab78d-b834-4fea-8f04-f553cfea8766}; !- Material Name

OS:Construction,
  {0d5a2ee8-242b-43e0-92d3-6a9fe20c3aad}, !- Handle
  ASHRAE 189.1-2009 ExtRoof Metal ClimateZone 2-5, !- Name
  ,                                       !- Surface Rendering Name
  {44c9e31c-9226-4af1-b3b4-7c02f647249d}, !- Layer 1
  {967f42c1-5279-4c14-8dfb-6409c68c180e}, !- Layer 2
  {2c828f3e-f49f-4e3e-a380-978467c09016}; !- Layer 3

OS:StandardsInformation:Construction,
  {8493619b-63ce-47cc-a68d-44e3b86b7135}, !- Handle
  {0d5a2ee8-242b-43e0-92d3-6a9fe20c3aad}, !- Construction Name
  ExteriorRoof,                           !- Intended Surface Type
  Metal,                                  !- Standards Construction Type
  ,                                       !- Perturbable Layer
  ,                                       !- Perturbable Layer Type
  ,                                       !- Other Perturbable Layer Type
  ASHRAE 189.1-2009;                      !- Construction Standard

OS:Material,
  {967f42c1-5279-4c14-8dfb-6409c68c180e}, !- Handle
  Roof Insulation [22],                   !- Name
  MediumRough,                            !- Roughness
  0.2358,                                 !- Thickness {m}
  0.049,                                  !- Conductivity {W/m-K}
  265,                                    !- Density {kg/m3}
  836.800000000001,                       !- Specific Heat {J/kg-K}
  0.9,                                    !- Thermal Absorptance
  0.7,                                    !- Solar Absorptance
  0.7;                                    !- Visible Absorptance

OS:StandardsInformation:Material,
  {58a9e8e0-1f5b-42be-b42e-3e37999f5c63}, !- Handle
  {967f42c1-5279-4c14-8dfb-6409c68c180e}; !- Material Name

OS:Construction,
  {418cea88-0453-4547-a1d3-98fe0f2ca420}, !- Handle
  ASHRAE 189.1-2009 ExtRoof Metal ClimateZone 6, !- Name
  ,                                       !- Surface Rendering Name
  {44c9e31c-9226-4af1-b3b4-7c02f647249d}, !- Layer 1
  {9cf0dc03-7c46-4c76-83c6-fd7e7041511f}, !- Layer 2
  {2c828f3e-f49f-4e3e-a380-978467c09016}; !- Layer 3

OS:StandardsInformation:Construction,
  {39b7b33b-a680-4002-9c67-013eac03a991}, !- Handle
  {418cea88-0453-4547-a1d3-98fe0f2ca420}, !- Construction Name
  ExteriorRoof,                           !- Intended Surface Type
  Metal,                                  !- Standards Construction Type
  ,                                       !- Perturbable Layer
  ,                                       !- Perturbable Layer Type
  ,                                       !- Other Perturbable Layer Type
  ASHRAE 189.1-2009;                      !- Construction Standard

OS:Material,
  {9cf0dc03-7c46-4c76-83c6-fd7e7041511f}, !- Handle
  Roof Insulation [25],                   !- Name
  MediumRough,                            !- Roughness
  0.263,                                  !- Thickness {m}
  0.049,                                  !- Conductivity {W/m-K}
  265,                                    !- Density {kg/m3}
  836.800000000001,                       !- Specific Heat {J/kg-K}
  0.9,                                    !- Thermal Absorptance
  0.7,                                    !- Solar Absorptance
  0.7;                                    !- Visible Absorptance

OS:StandardsInformation:Material,
  {e21db428-8d5b-442d-9b1d-53cfbee9c369}, !- Handle
  {9cf0dc03-7c46-4c76-83c6-fd7e7041511f}; !- Material Name

OS:Construction,
  {065a91f8-7838-43c7-bc3c-75ba8b59758a}, !- Handle
  ASHRAE 189.1-2009 ExtRoof Metal ClimateZone 7-8, !- Name
  ,                                       !- Surface Rendering Name
  {44c9e31c-9226-4af1-b3b4-7c02f647249d}, !- Layer 1
  {bfeb98cd-7586-4579-a332-8c317e513a2f}, !- Layer 2
  {2c828f3e-f49f-4e3e-a380-978467c09016}; !- Layer 3

OS:StandardsInformation:Construction,
  {6d6de0bb-fcfe-4cc0-bdf3-1b74df0f436c}, !- Handle
  {065a91f8-7838-43c7-bc3c-75ba8b59758a}, !- Construction Name
  ExteriorRoof,                           !- Intended Surface Type
  Metal,                                  !- Standards Construction Type
  ,                                       !- Perturbable Layer
  ,                                       !- Perturbable Layer Type
  ,                                       !- Other Perturbable Layer Type
  ASHRAE 189.1-2009;                      !- Construction Standard

OS:Material,
  {bfeb98cd-7586-4579-a332-8c317e513a2f}, !- Handle
  Roof Insulation [27],                   !- Name
  MediumRough,                            !- Roughness
  0.297000000000001,                      !- Thickness {m}
  0.049,                                  !- Conductivity {W/m-K}
  265,                                    !- Density {kg/m3}
  836.800000000001,                       !- Specific Heat {J/kg-K}
  0.9,                                    !- Thermal Absorptance
  0.7,                                    !- Solar Absorptance
  0.7;                                    !- Visible Absorptance

OS:StandardsInformation:Material,
  {d1858c8a-320c-47aa-8148-3dad07d8ad7a}, !- Handle
  {bfeb98cd-7586-4579-a332-8c317e513a2f}; !- Material Name

OS:Construction,
  {078cc88a-2ed9-4459-8487-fd51a8b5c127}, !- Handle
  ASHRAE 189.1-2009 ExtWall Mass ClimateZone 1, !- Name
  ,                                       !- Surface Rendering Name
  {0c873c88-2b7c-4985-8ef5-077de01b0af9}, !- Layer 1
  {195ad2f6-dd82-4910-85b0-577597739b75}, !- Layer 2
  {901c5be5-9251-4b3a-9a60-b2c342fe20aa}, !- Layer 3
  {ca8a182d-6baa-4755-a6c3-25cf72713114}; !- Layer 4

OS:StandardsInformation:Construction,
  {9e863f23-835b-4931-8dad-56f533db9b46}, !- Handle
  {078cc88a-2ed9-4459-8487-fd51a8b5c127}, !- Construction Name
  ExteriorWall,                           !- Intended Surface Type
  Mass,                                   !- Standards Construction Type
  ,                                       !- Perturbable Layer
  ,                                       !- Perturbable Layer Type
  ,                                       !- Other Perturbable Layer Type
  ASHRAE 189.1-2009;                      !- Construction Standard

OS:Material,
  {0c873c88-2b7c-4985-8ef5-077de01b0af9}, !- Handle
  1IN Stucco,                             !- Name
  Smooth,                                 !- Roughness
  0.0253,                                 !- Thickness {m}
  0.691799999999999,                      !- Conductivity {W/m-K}
  1858,                                   !- Density {kg/m3}
  836.999999999999,                       !- Specific Heat {J/kg-K}
  0.9,                                    !- Thermal Absorptance
  0.92,                                   !- Solar Absorptance
  0.92;                                   !- Visible Absorptance

OS:StandardsInformation:Material,
  {6d72b06c-ae8b-4275-a577-d156edf5cdf8}, !- Handle
  {0c873c88-2b7c-4985-8ef5-077de01b0af9}; !- Material Name

OS:Material,
  {195ad2f6-dd82-4910-85b0-577597739b75}, !- Handle
  8IN Concrete HW,                        !- Name
  MediumRough,                            !- Roughness
  0.2033,                                 !- Thickness {m}
  1.72959999999999,                       !- Conductivity {W/m-K}
  2242.99999999999,                       !- Density {kg/m3}
  836.999999999999,                       !- Specific Heat {J/kg-K}
  0.9,                                    !- Thermal Absorptance
  0.65,                                   !- Solar Absorptance
  0.65;                                   !- Visible Absorptance

OS:StandardsInformation:Material,
  {8cd2144a-80bf-4969-96ea-cb36ea374b2a}, !- Handle
  {195ad2f6-dd82-4910-85b0-577597739b75}; !- Material Name

OS:Material,
  {901c5be5-9251-4b3a-9a60-b2c342fe20aa}, !- Handle
  Wall Insulation [31],                   !- Name
  MediumRough,                            !- Roughness
  0.0337000000000001,                     !- Thickness {m}
  0.0432,                                 !- Conductivity {W/m-K}
  91,                                     !- Density {kg/m3}
  836.999999999999,                       !- Specific Heat {J/kg-K}
  0.9,                                    !- Thermal Absorptance
  0.5,                                    !- Solar Absorptance
  0.5;                                    !- Visible Absorptance

OS:StandardsInformation:Material,
  {dbd2c8b7-2129-4890-9705-9bff3dbdf691}, !- Handle
  {901c5be5-9251-4b3a-9a60-b2c342fe20aa}; !- Material Name

OS:Construction,
  {ee3fdf1b-c715-40a4-b186-e83707b2cf1e}, !- Handle
  ASHRAE 189.1-2009 ExtWall Mass ClimateZone 2, !- Name
  ,                                       !- Surface Rendering Name
  {0c873c88-2b7c-4985-8ef5-077de01b0af9}, !- Layer 1
  {195ad2f6-dd82-4910-85b0-577597739b75}, !- Layer 2
  {33a7f17b-05e8-4659-8720-7b31bc6b99c8}, !- Layer 3
  {ca8a182d-6baa-4755-a6c3-25cf72713114}; !- Layer 4

OS:StandardsInformation:Construction,
  {aa841033-ef99-4d0b-846f-fc979fcc3b50}, !- Handle
  {ee3fdf1b-c715-40a4-b186-e83707b2cf1e}, !- Construction Name
  ExteriorWall,                           !- Intended Surface Type
  Mass,                                   !- Standards Construction Type
  ,                                       !- Perturbable Layer
  ,                                       !- Perturbable Layer Type
  ,                                       !- Other Perturbable Layer Type
  ASHRAE 189.1-2009;                      !- Construction Standard

OS:Material,
  {33a7f17b-05e8-4659-8720-7b31bc6b99c8}, !- Handle
  Wall Insulation [35],                   !- Name
  MediumRough,                            !- Roughness
  0.0452,                                 !- Thickness {m}
  0.0432,                                 !- Conductivity {W/m-K}
  91,                                     !- Density {kg/m3}
  836.999999999999,                       !- Specific Heat {J/kg-K}
  0.9,                                    !- Thermal Absorptance
  0.5,                                    !- Solar Absorptance
  0.5;                                    !- Visible Absorptance

OS:StandardsInformation:Material,
  {971061c8-b39f-4a96-9019-1ccf7ae0afa5}, !- Handle
  {33a7f17b-05e8-4659-8720-7b31bc6b99c8}; !- Material Name

OS:Construction,
  {d6045393-51f9-4c9b-ae0f-69d9284a9961}, !- Handle
  ASHRAE 189.1-2009 ExtWall Mass ClimateZone 3, !- Name
  ,                                       !- Surface Rendering Name
  {0c873c88-2b7c-4985-8ef5-077de01b0af9}, !- Layer 1
  {195ad2f6-dd82-4910-85b0-577597739b75}, !- Layer 2
  {9bc9280d-5f69-4179-a96b-0c47d865d3f5}, !- Layer 3
  {ca8a182d-6baa-4755-a6c3-25cf72713114}; !- Layer 4

OS:StandardsInformation:Construction,
  {74b405d5-ac50-47ed-86d6-1703a3e4370d}, !- Handle
  {d6045393-51f9-4c9b-ae0f-69d9284a9961}, !- Construction Name
  ExteriorWall,                           !- Intended Surface Type
  Mass,                                   !- Standards Construction Type
  ,                                       !- Perturbable Layer
  ,                                       !- Perturbable Layer Type
  ,                                       !- Other Perturbable Layer Type
  ASHRAE 189.1-2009;                      !- Construction Standard

OS:Material,
  {9bc9280d-5f69-4179-a96b-0c47d865d3f5}, !- Handle
  Wall Insulation [36],                   !- Name
  MediumRough,                            !- Roughness
  0.0565999999999999,                     !- Thickness {m}
  0.0432,                                 !- Conductivity {W/m-K}
  91,                                     !- Density {kg/m3}
  836.999999999999,                       !- Specific Heat {J/kg-K}
  0.9,                                    !- Thermal Absorptance
  0.5,                                    !- Solar Absorptance
  0.5;                                    !- Visible Absorptance

OS:StandardsInformation:Material,
  {0510a1c6-350b-486a-8f1d-ae26d5e19512}, !- Handle
  {9bc9280d-5f69-4179-a96b-0c47d865d3f5}; !- Material Name

OS:Construction,
  {324a6c5f-5aa9-445c-9540-b15723e0064e}, !- Handle
  ASHRAE 189.1-2009 ExtWall Mass ClimateZone 4, !- Name
  ,                                       !- Surface Rendering Name
  {0c873c88-2b7c-4985-8ef5-077de01b0af9}, !- Layer 1
  {195ad2f6-dd82-4910-85b0-577597739b75}, !- Layer 2
  {fbda172a-e5ad-4a3a-8536-110f3129d67b}, !- Layer 3
  {ca8a182d-6baa-4755-a6c3-25cf72713114}; !- Layer 4

OS:StandardsInformation:Construction,
  {a87ae877-8a5b-4481-a33f-0ffafe020278}, !- Handle
  {324a6c5f-5aa9-445c-9540-b15723e0064e}, !- Construction Name
  ExteriorWall,                           !- Intended Surface Type
  Mass,                                   !- Standards Construction Type
  ,                                       !- Perturbable Layer
  ,                                       !- Perturbable Layer Type
  ,                                       !- Other Perturbable Layer Type
  ASHRAE 189.1-2009;                      !- Construction Standard

OS:Material,
  {fbda172a-e5ad-4a3a-8536-110f3129d67b}, !- Handle
  Wall Insulation [37],                   !- Name
  MediumRough,                            !- Roughness
  0.0680999999999999,                     !- Thickness {m}
  0.0432,                                 !- Conductivity {W/m-K}
  91,                                     !- Density {kg/m3}
  836.999999999999,                       !- Specific Heat {J/kg-K}
  0.9,                                    !- Thermal Absorptance
  0.5,                                    !- Solar Absorptance
  0.5;                                    !- Visible Absorptance

OS:StandardsInformation:Material,
  {01e1644d-0657-4aa9-9e5f-fb65fe2024c2}, !- Handle
  {fbda172a-e5ad-4a3a-8536-110f3129d67b}; !- Material Name

OS:Construction,
  {9e08e35f-9d89-4c5b-ab35-2f430bbb8fdd}, !- Handle
  ASHRAE 189.1-2009 ExtWall Mass ClimateZone 5, !- Name
  ,                                       !- Surface Rendering Name
  {0c873c88-2b7c-4985-8ef5-077de01b0af9}, !- Layer 1
  {195ad2f6-dd82-4910-85b0-577597739b75}, !- Layer 2
  {758fffd5-6481-4074-8957-b3562fee0c27}, !- Layer 3
  {ca8a182d-6baa-4755-a6c3-25cf72713114}; !- Layer 4

OS:StandardsInformation:Construction,
  {8dc4e888-5dc4-46f3-9082-61bc5f715958}, !- Handle
  {9e08e35f-9d89-4c5b-ab35-2f430bbb8fdd}, !- Construction Name
  ExteriorWall,                           !- Intended Surface Type
  Mass,                                   !- Standards Construction Type
  ,                                       !- Perturbable Layer
  ,                                       !- Perturbable Layer Type
  ,                                       !- Other Perturbable Layer Type
  ASHRAE 189.1-2009;                      !- Construction Standard

OS:Material,
  {758fffd5-6481-4074-8957-b3562fee0c27}, !- Handle
  Wall Insulation [40],                   !- Name
  MediumRough,                            !- Roughness
  0.0793999999999999,                     !- Thickness {m}
  0.0432,                                 !- Conductivity {W/m-K}
  91,                                     !- Density {kg/m3}
  836.999999999999,                       !- Specific Heat {J/kg-K}
  0.9,                                    !- Thermal Absorptance
  0.5,                                    !- Solar Absorptance
  0.5;                                    !- Visible Absorptance

OS:StandardsInformation:Material,
  {33a02fa0-6062-4a7b-b4d8-21d3a1ae1eda}, !- Handle
  {758fffd5-6481-4074-8957-b3562fee0c27}; !- Material Name

OS:Construction,
  {e79bbc3f-d9d3-495e-8a7a-7767bcc55985}, !- Handle
  ASHRAE 189.1-2009 ExtWall Mass ClimateZone 6, !- Name
  ,                                       !- Surface Rendering Name
  {0c873c88-2b7c-4985-8ef5-077de01b0af9}, !- Layer 1
  {195ad2f6-dd82-4910-85b0-577597739b75}, !- Layer 2
  {da35a9ab-74b0-4e1a-9982-3b2e63360685}, !- Layer 3
  {ca8a182d-6baa-4755-a6c3-25cf72713114}; !- Layer 4

OS:StandardsInformation:Construction,
  {d11d5d31-1efd-4ea4-a630-e29bee941a3e}, !- Handle
  {e79bbc3f-d9d3-495e-8a7a-7767bcc55985}, !- Construction Name
  ExteriorWall,                           !- Intended Surface Type
  Mass,                                   !- Standards Construction Type
  ,                                       !- Perturbable Layer
  ,                                       !- Perturbable Layer Type
  ,                                       !- Other Perturbable Layer Type
  ASHRAE 189.1-2009;                      !- Construction Standard

OS:Material,
  {da35a9ab-74b0-4e1a-9982-3b2e63360685}, !- Handle
  Wall Insulation [42],                   !- Name
  MediumRough,                            !- Roughness
  0.0913999999999999,                     !- Thickness {m}
  0.0432,                                 !- Conductivity {W/m-K}
  91,                                     !- Density {kg/m3}
  836.999999999999,                       !- Specific Heat {J/kg-K}