
OS:Version,
  {adcdc13c-3943-4f04-9728-8670fd95e0e5}, !- Handle
  0.11.5;                                 !- Version Identifier

OS:Schedule:Constant,
  {fc1e553c-dd40-40cd-b858-adfa8bc02421}, !- Handle
  Always On Discrete,                     !- Name
  {ac649ed8-42a8-46b6-8f04-e52bc64a4eba}, !- Schedule Type Limits Name
  1;                                      !- Value

OS:ScheduleTypeLimits,
  {ac649ed8-42a8-46b6-8f04-e52bc64a4eba}, !- Handle
  Always On Discrete Limits,              !- Name
  0,                                      !- Lower Limit Value {BasedOnField A4}
  1,                                      !- Upper Limit Value {BasedOnField A4}
  Discrete,                               !- Numeric Type
  Availability;                           !- Unit Type

OS:Building,
  {dd0ca6a2-4ff3-48b8-827a-db1caf243db3}, ! Handle
  Outpatient Facility,                    ! Name
  ,                                       ! Building Type
  -0,                                     ! North Axis
  ,                                       ! Nominal Floor to Floor Height
  {f1a444b3-a4eb-47d2-a87b-4522f8b57ef6}, ! Space Type Name
  {9b2ccc92-e024-4c4b-b441-7ae7db42059d}, ! Default Construction Set Name
  ;                                       ! Default Schedule Set Name

OS:Construction,
  {be21a37a-7ea5-4d6c-b68b-d45fed887b9a}, ! Handle
  000 AtticRoof ClimateZone 1-8,          ! Name
  {ee7c74c6-492c-4556-a173-5407a8170d4b}, ! Surface Rendering Name
  {2c94516f-fa6e-4196-bc5a-31ae6b1409db}, ! Layer 1
  {837e7269-f042-49a6-b39e-60a96da3696d}; ! Layer 2

OS:Construction,
  {53214f23-5a23-44d4-94c2-279c287937c8}, ! Handle
  000 ExtSlabCarpet 4in ClimateZone 1-8,  ! Name
  {16975af4-6d34-44ef-9757-6bafba91b7fd}, ! Surface Rendering Name
  {40dd44a0-b022-4828-b878-0a77cf78a756}, ! Layer 1
  {ef37ff1a-82cf-4ef8-b219-185c5ab8674b}; ! Layer 2

OS:Construction,
  {0245f00f-ccf0-4711-963d-29d0e9dce88d}, ! Handle
  000 ExtSlabCarpet 8in ClimateZone 1-8,  ! Name
  {07e9dffc-1667-4d18-b07e-2e7138c575f7}, ! Surface Rendering Name
  {0df28434-9fe4-4268-9183-a92577edf5fb}, ! Layer 1
  {ef37ff1a-82cf-4ef8-b219-185c5ab8674b}; ! Layer 2

OS:Construction,
  {c410a2da-47c1-4a3f-8304-f5e1b4c27f49}, ! Handle
  000 ExtSlab 4in ClimateZone 1-8,        ! Name
  {60381ce0-503c-49eb-8947-f78028d4b1a8}, ! Surface Rendering Name
  {40dd44a0-b022-4828-b878-0a77cf78a756}; ! Layer 1

OS:Construction,
  {15f04b92-34d0-4b26-8b8f-884dfcd83759}, ! Handle
  000 ExtSlab 8in ClimateZone 1-8,        ! Name
  {5008ef64-b26e-4b8f-98cc-8c2f1bf89bad}, ! Surface Rendering Name
  {0df28434-9fe4-4268-9183-a92577edf5fb}; ! Layer 1

OS:Construction,
  {289f5842-284d-423c-b195-a64854788675}, ! Handle
  000 Exterior Door,                      ! Name
  {756ea301-fdac-4d97-ad82-392f018ac51b}, ! Surface Rendering Name
  {d91479b7-168e-48a9-baf9-d717765cfa3a}, ! Layer 1
  {8e7cd6ef-e21a-4f85-a335-5d2d4adf0a60}; ! Layer 2

OS:Construction,
  {752ede59-e9fb-494c-ace9-69b6e3e25a01}, ! Handle
  000 Exterior Floor,                     ! Name
  {7cd1cadb-7dfa-4d4b-a093-6a17a2b1e0cb}, ! Surface Rendering Name
  {9bc3acea-f60f-4f8b-8dc6-dcdb6c8952de}, ! Layer 1
  {a1898932-233b-4ee8-880a-bae4a6a0cbac}; ! Layer 2

OS:Construction,
  {7e392536-dc57-462d-a7f0-97689d20ac74}, ! Handle
  000 Exterior Roof,                      ! Name
  {97d8ea85-ac6c-4fc0-adcd-5dfa9a8e2940}, ! Surface Rendering Name
  {9f7a4e9a-2439-4786-90b4-0ef08f7e8d0f}, ! Layer 1
  {c21b66d3-f9ec-41c7-970f-73041f7b7406}, ! Layer 2
  {98361be4-6f4a-4998-8599-35e3bbf4e719}; ! Layer 3

OS:Construction,
  {0420df3b-4df1-4fe9-96e2-5c50423eca13}, ! Handle
  000 Exterior Wall,                      ! Name
  {e3d97509-b38c-4c6d-a571-0b167d8d4b9d}, ! Surface Rendering Name
  {ba12a3da-8f89-4d46-83bd-e21ae5e21ac1}, ! Layer 1
  {a1898932-233b-4ee8-880a-bae4a6a0cbac}, ! Layer 2
  {9bc3acea-f60f-4f8b-8dc6-dcdb6c8952de}, ! Layer 3
  {b88b1594-5649-468b-b764-bc20da0fdcb7}, ! Layer 4
  {976ed384-edbd-4bdf-a473-8549a06956c3}; ! Layer 5

OS:Construction,
  {1cb18a80-8117-40e4-84cf-1c7e01687a88}, ! Handle
  000 Exterior Window,                    ! Name
  {08fb4430-d2db-4957-8217-3d47b7111e51}, ! Surface Rendering Name
  {6e2e16a3-35e0-4842-859f-b73e9e52a3ea}, ! Layer 1
  {08e8f67d-4480-4196-b462-410e4b734c4a}, ! Layer 2
  {6e2e16a3-35e0-4842-859f-b73e9e52a3ea}; ! Layer 3

OS:Construction,
  {073b6248-fe04-4355-b056-c58fb45cb6d7}, ! Handle
  000 Interior Ceiling,                   ! Name
  {cebded86-e3c5-43af-86b6-c021838abbce}, ! Surface Rendering Name
  {9f7a4e9a-2439-4786-90b4-0ef08f7e8d0f}, ! Layer 1
  {c21b66d3-f9ec-41c7-970f-73041f7b7406}, ! Layer 2
  {98361be4-6f4a-4998-8599-35e3bbf4e719}; ! Layer 3

OS:Construction,
  {c5603cc2-a9b2-45c1-8abd-1f277b601eee}, ! Handle
  000 Interior Door,                      ! Name
  {a85fe3e3-82ef-45e7-b092-7c891e779c17}, ! Surface Rendering Name
  {44edd615-ace4-41eb-bf8e-f5cca7570111}; ! Layer 1

OS:Construction,
  {d5268787-7107-4a6d-983d-9a8845e93c20}, ! Handle
  000 Interior Floor,                     ! Name
  {ebb9c087-74c9-42dc-8ac3-ee2a07d4ff1e}, ! Surface Rendering Name
  {98361be4-6f4a-4998-8599-35e3bbf4e719}, ! Layer 1
  {c21b66d3-f9ec-41c7-970f-73041f7b7406}, ! Layer 2
  {9f7a4e9a-2439-4786-90b4-0ef08f7e8d0f}; ! Layer 3

OS:Construction,
  {189d2a86-b288-4798-b5a1-2afe6a896376}, ! Handle
  000 Interior Partition,                 ! Name
  {9c393daf-f115-4587-87ec-922ae0339a35}, ! Surface Rendering Name
  {44edd615-ace4-41eb-bf8e-f5cca7570111}; ! Layer 1

OS:Construction,
  {856a3420-576d-4cfc-ae77-96f1e96327f1}, ! Handle
  000 Interior Wall,                      ! Name
  {923c8912-6fa9-439f-b90c-d5219c3f437b}, ! Surface Rendering Name
  {976ed384-edbd-4bdf-a473-8549a06956c3}, ! Layer 1
  {b88b1594-5649-468b-b764-bc20da0fdcb7}, ! Layer 2
  {976ed384-edbd-4bdf-a473-8549a06956c3}; ! Layer 3

OS:Construction,
  {6dc15c83-6d18-4d79-b5a1-f843957feb78}, ! Handle
  000 Interior Window,                    ! Name
  {5bacdb91-baad-4865-8ba7-52755bdce86c}, ! Surface Rendering Name
  {6e2e16a3-35e0-4842-859f-b73e9e52a3ea}; ! Layer 1

OS:Construction,
  {4ecb5bd7-a70b-4c96-9182-d2f5811af592}, ! Handle
  ASHRAE 189.1-2009 AtticFloor ClimateZone 1-8, ! Name
  {6a89e792-1cce-4ad2-9ddb-8cfcfd7d57bb}, ! Surface Rendering Name
  {f9ba6ab7-374c-49cc-967f-b48d62405f41}, ! Layer 1
  {f91e70b4-49be-403b-b0ac-9c4defc04acb}, ! Layer 2
  {f9ba6ab7-374c-49cc-967f-b48d62405f41}; ! Layer 3

OS:Construction,
  {a67385db-cc97-437c-a097-2804f72bf17e}, ! Handle
  ASHRAE 189.1-2009 ExtRoof IEAD ClimateZone 1, ! Name
  {4ae4c8e7-699d-4edf-8cc7-c5e9ebba836c}, ! Surface Rendering Name
  {2c94516f-fa6e-4196-bc5a-31ae6b1409db}, ! Layer 1
  {91c42e80-3022-4702-a01b-39ae5db572d9}, ! Layer 2
  {837e7269-f042-49a6-b39e-60a96da3696d}; ! Layer 3

OS:Construction,
  {ead3d928-382e-4d28-b160-423123b3bd72}, ! Handle
  ASHRAE 189.1-2009 ExtRoof IEAD ClimateZone 2-5, ! Name
  {ed70ca9d-fc86-49e1-be41-998ff9f837ac}, ! Surface Rendering Name
  {2c94516f-fa6e-4196-bc5a-31ae6b1409db}, ! Layer 1
  {e41c7f46-304f-4627-858b-551574c97b5e}, ! Layer 2
  {837e7269-f042-49a6-b39e-60a96da3696d}; ! Layer 3

OS:Construction,
  {c37a0f13-095c-4f1b-b19a-517019b1eb58}, ! Handle
  ASHRAE 189.1-2009 ExtRoof IEAD ClimateZone 6, ! Name
  {6317daa0-30fc-4ab1-a0cf-f94fc4af5513}, ! Surface Rendering Name
  {2c94516f-fa6e-4196-bc5a-31ae6b1409db}, ! Layer 1
  {22610903-3b14-4c15-bf67-2c346b79c0af}, ! Layer 2
  {837e7269-f042-49a6-b39e-60a96da3696d}; ! Layer 3

OS:Construction,
  {b90f9ae4-62ba-40ac-804b-c4b2d8d3641c}, ! Handle
  ASHRAE 189.1-2009 ExtRoof IEAD ClimateZone 7-8, ! Name
  {448237b2-a9e3-4f7b-b52b-ac97890dfc45}, ! Surface Rendering Name
  {2c94516f-fa6e-4196-bc5a-31ae6b1409db}, ! Layer 1
  {3dfc2237-8a08-45ec-8133-6ddb33aaf55f}, ! Layer 2
  {837e7269-f042-49a6-b39e-60a96da3696d}; ! Layer 3

OS:Construction,
  {e2fe984f-239c-4c50-a75a-144195720e8f}, ! Handle
  ASHRAE 189.1-2009 ExtRoof Metal ClimateZone 1, ! Name
  {00612b65-dd4d-4deb-9114-e9c0ea9b1cc6}, ! Surface Rendering Name
  {d713e359-1b31-450c-aebf-016bce0dbc4c}, ! Layer 1
  {4340c612-eb10-492e-b5d4-b869c8b2d871}; ! Layer 2

OS:Construction,
  {d81321a1-52ad-4482-82a6-969c847a7ac0}, ! Handle
  ASHRAE 189.1-2009 ExtRoof Metal ClimateZone 2-5, ! Name
  {d554e022-7baa-4526-890b-203d518dc8db}, ! Surface Rendering Name
  {d713e359-1b31-450c-aebf-016bce0dbc4c}, ! Layer 1
  {0c377de8-61de-4fa6-bc28-7c8eaae899b3}; ! Layer 2

OS:Construction,
  {3fc2f24d-1382-48c6-b85e-b84431c1a98d}, ! Handle
  ASHRAE 189.1-2009 ExtRoof Metal ClimateZone 6, ! Name
  {9b74fb52-ed99-4415-88fc-7ea0e12b8181}, ! Surface Rendering Name
  {d713e359-1b31-450c-aebf-016bce0dbc4c}, ! Layer 1
  {b8cb7606-2e91-41f4-b55d-fadbf369d21c}; ! Layer 2

OS:Construction,
  {385180b1-4c38-481d-917c-9a7db7ed7f72}, ! Handle
  ASHRAE 189.1-2009 ExtRoof Metal ClimateZone 7-8, ! Name
  {c64924c7-d63a-4c8c-b016-7c332bf5d8b0}, ! Surface Rendering Name
  {d713e359-1b31-450c-aebf-016bce0dbc4c}, ! Layer 1
  {47bcb834-b914-4c0f-be31-06c0e9313d1b}; ! Layer 2

OS:Construction,
  {eb6b6828-0fcb-4bfb-83d4-45c2cfa9272d}, ! Handle
  ASHRAE 189.1-2009 ExtWall Mass ClimateZone 1, ! Name
  {a2317e8e-4344-48d2-976a-2010483bacda}, ! Surface Rendering Name
  {8e5653db-62c8-4644-a765-16eac45c6a77}, ! Layer 1
  {11b6fc6b-a15d-4d0e-b987-4847dc98ae77}, ! Layer 2
  {f04631a8-cccd-4b22-8e13-d27e675488dd}, ! Layer 3
  {f9ba6ab7-374c-49cc-967f-b48d62405f41}; ! Layer 4

OS:Construction,
  {c9f7277c-0682-4778-aa3f-4db9b506e3fc}, ! Handle
  ASHRAE 189.1-2009 ExtWall Mass ClimateZone 2, ! Name
  {2b9bdac4-dd80-4b45-9336-6c80f5c4b2e9}, ! Surface Rendering Name
  {8e5653db-62c8-4644-a765-16eac45c6a77}, ! Layer 1
  {11b6fc6b-a15d-4d0e-b987-4847dc98ae77}, ! Layer 2
  {f3001350-2daf-4663-9402-04d4c19b07e7}, ! Layer 3
  {f9ba6ab7-374c-49cc-967f-b48d62405f41}; ! Layer 4

OS:Construction,
  {8672cf03-03d2-400b-a434-7e9c54fcf4da}, ! Handle
  ASHRAE 189.1-2009 ExtWall Mass ClimateZone 3, ! Name
  {a6d77e30-7911-4ded-8316-5775147c3bc2}, ! Surface Rendering Name
  {8e5653db-62c8-4644-a765-16eac45c6a77}, ! Layer 1
  {11b6fc6b-a15d-4d0e-b987-4847dc98ae77}, ! Layer 2
  {4e11f327-8d6d-4087-81bf-1213c018f27f}, ! Layer 3
  {f9ba6ab7-374c-49cc-967f-b48d62405f41}; ! Layer 4

OS:Construction,
  {745264e8-e0ea-4007-ad13-782a8c3e34d8}, ! Handle
  ASHRAE 189.1-2009 ExtWall Mass ClimateZone 4, ! Name
  {5d28093a-85a9-426a-8c85-67ea09389ee5}, ! Surface Rendering Name
  {8e5653db-62c8-4644-a765-16eac45c6a77}, ! Layer 1
  {11b6fc6b-a15d-4d0e-b987-4847dc98ae77}, ! Layer 2
  {5560bf9c-6c37-47d5-bc95-b2748523cc47}, ! Layer 3
  {f9ba6ab7-374c-49cc-967f-b48d62405f41}; ! Layer 4

OS:Construction,
  {4ff04d2c-88d1-4b61-800c-c9973c17526b}, ! Handle
  ASHRAE 189.1-2009 ExtWall Mass ClimateZone 5, ! Name
  {da244fef-5ae9-4229-b957-17392dfdf8db}, ! Surface Rendering Name
  {8e5653db-62c8-4644-a765-16eac45c6a77}, ! Layer 1
  {11b6fc6b-a15d-4d0e-b987-4847dc98ae77}, ! Layer 2
  {51d902dc-b177-44eb-89ba-0a5d639b312d}, ! Layer 3
  {f9ba6ab7-374c-49cc-967f-b48d62405f41}; ! Layer 4

OS:Construction,
  {4f4b1cf9-6282-4002-9933-e0263307e4c8}, ! Handle
  ASHRAE 189.1-2009 ExtWall Mass ClimateZone 6, ! Name
  {8fa6ed26-b349-449a-97c5-a3fd031509ff}, ! Surface Rendering Name
  {8e5653db-62c8-4644-a765-16eac45c6a77}, ! Layer 1
  {11b6fc6b-a15d-4d0e-b987-4847dc98ae77}, ! Layer 2
  {2e340ae7-1ffa-4d47-89cc-e3640b3eec0a}, ! Layer 3
  {f9ba6ab7-374c-49cc-967f-b48d62405f41}; ! Layer 4

OS:Construction,
  {4b8abdbf-1fe2-4e67-82de-c85b82fb78d7}, ! Handle
  ASHRAE 189.1-2009 ExtWall Mass ClimateZone 7-8, ! Name
  {caf52b1e-c3b6-4cb0-bb4a-a110cf0fb5f2}, ! Surface Rendering Name
  {8e5653db-62c8-4644-a765-16eac45c6a77}, ! Layer 1
  {11b6fc6b-a15d-4d0e-b987-4847dc98ae77}, ! Layer 2
  {b5cd4b43-b590-4666-a680-bc47ea1f3389}, ! Layer 3
  {f9ba6ab7-374c-49cc-967f-b48d62405f41}; ! Layer 4

OS:Construction,
  {a15b64c4-79ba-4dd3-9c2c-01d8dfaaebcf}, ! Handle
  ASHRAE 189.1-2009 ExtWall Mass ClimateZone alt-res 1, ! Name
  {0bbdaaed-7c7b-42ba-84ab-229f2c721ed8}, ! Surface Rendering Name
  {8e5653db-62c8-4644-a765-16eac45c6a77}, ! Layer 1
  {11b6fc6b-a15d-4d0e-b987-4847dc98ae77}, ! Layer 2
  {f3001350-2daf-4663-9402-04d4c19b07e7}, ! Layer 3
  {f9ba6ab7-374c-49cc-967f-b48d62405f41}; ! Layer 4

OS:Construction,
  {20713adc-4624-4885-b2d1-7a5fa2aab1eb}, ! Handle
  ASHRAE 189.1-2009 ExtWall Mass ClimateZone alt-res 2, ! Name
  {fdec4626-40e0-481f-b0c0-e783bb4d0076}, ! Surface Rendering Name
  {8e5653db-62c8-4644-a765-16eac45c6a77}, ! Layer 1
  {11b6fc6b-a15d-4d0e-b987-4847dc98ae77}, ! Layer 2
  {4e11f327-8d6d-4087-81bf-1213c018f27f}, ! Layer 3
  {f9ba6ab7-374c-49cc-967f-b48d62405f41}; ! Layer 4

OS:Construction,
  {eaf794d1-ad0a-453b-b133-4abdea3f0a2f}, ! Handle
  ASHRAE 189.1-2009 ExtWall Mass ClimateZone alt-res 3, ! Name
  {f288c0a8-6b53-4f3c-b024-8eb92beb7a4d}, ! Surface Rendering Name
  {8e5653db-62c8-4644-a765-16eac45c6a77}, ! Layer 1
  {11b6fc6b-a15d-4d0e-b987-4847dc98ae77}, ! Layer 2
  {5560bf9c-6c37-47d5-bc95-b2748523cc47}, ! Layer 3
  {f9ba6ab7-374c-49cc-967f-b48d62405f41}; ! Layer 4

OS:Construction,
  {603349f5-0142-4de0-b185-9d75fbf76810}, ! Handle
  ASHRAE 189.1-2009 ExtWall Mass ClimateZone alt-res 4, ! Name
  {372417e2-b295-426c-9bf9-0f1805eae4d1}, ! Surface Rendering Name
  {8e5653db-62c8-4644-a765-16eac45c6a77}, ! Layer 1
  {11b6fc6b-a15d-4d0e-b987-4847dc98ae77}, ! Layer 2
  {51d902dc-b177-44eb-89ba-0a5d639b312d}, ! Layer 3
  {f9ba6ab7-374c-49cc-967f-b48d62405f41}; ! Layer 4

OS:Construction,
  {d2bb8e52-66c1-4a12-8522-f6013e0c52d1}, ! Handle
  ASHRAE 189.1-2009 ExtWall Mass ClimateZone alt-res 5, ! Name
  {dc432135-9c52-435e-8459-d50fced3c758}, ! Surface Rendering Name
  {8e5653db-62c8-4644-a765-16eac45c6a77}, ! Layer 1
  {11b6fc6b-a15d-4d0e-b987-4847dc98ae77}, ! Layer 2
  {2e340ae7-1ffa-4d47-89cc-e3640b3eec0a}, ! Layer 3
  {f9ba6ab7-374c-49cc-967f-b48d62405f41}; ! Layer 4

OS:Construction,
  {60613c3d-7de8-43f3-ad48-958c38235810}, ! Handle
  ASHRAE 189.1-2009 ExtWall Mass ClimateZone alt-res 6, ! Name
  {434eb8b1-5255-4948-9166-06ed0d8a4f69}, ! Surface Rendering Name
  {8e5653db-62c8-4644-a765-16eac45c6a77}, ! Layer 1
  {11b6fc6b-a15d-4d0e-b987-4847dc98ae77}, ! Layer 2
  {b5cd4b43-b590-4666-a680-bc47ea1f3389}, ! Layer 3
  {f9ba6ab7-374c-49cc-967f-b48d62405f41}; ! Layer 4

OS:Construction,
  {164175ad-2bf9-4681-9241-b29969dc24dc}, ! Handle
  ASHRAE 189.1-2009 ExtWall Mass ClimateZone alt-res 7, ! Name
  {91f52ac9-20ab-4c59-92f8-cce1d1b6da16}, ! Surface Rendering Name
  {8e5653db-62c8-4644-a765-16eac45c6a77}, ! Layer 1
  {11b6fc6b-a15d-4d0e-b987-4847dc98ae77}, ! Layer 2
  {b5cd4b43-b590-4666-a680-bc47ea1f3389}, ! Layer 3
  {f9ba6ab7-374c-49cc-967f-b48d62405f41}; ! Layer 4

OS:Construction,
  {bd97a3ef-f5d8-4d82-b747-9f3c202ba93f}, ! Handle
  ASHRAE 189.1-2009 ExtWall Mass ClimateZone alt-res 8, ! Name
  {6db4ae22-6f8b-4ab6-9568-512dca3ab34e}, ! Surface Rendering Name
  {8e5653db-62c8-4644-a765-16eac45c6a77}, ! Layer 1
  {11b6fc6b-a15d-4d0e-b987-4847dc98ae77}, ! Layer 2
  {0e60731d-ccc4-4806-89fa-b92bca7aa53e}, ! Layer 3
  {f9ba6ab7-374c-49cc-967f-b48d62405f41}; ! Layer 4

OS:Construction,
  {701bf763-7ac7-4fc1-885d-db14176ff99c}, ! Handle
  ASHRAE 189.1-2009 ExtWall Metal ClimateZone 1-3, ! Name
  {e4002507-1a58-44b2-92dc-5e54b7536a60}, ! Surface Rendering Name
  {7212f5e3-af5c-4801-89e5-cf3bba0c945f}, ! Layer 1
  {3d88e321-b70c-4088-9adc-505886e2a03c}, ! Layer 2
  {f9ba6ab7-374c-49cc-967f-b48d62405f41}; ! Layer 3

OS:Construction,
  {e24d509f-c982-401e-8e5a-ad20985e8cc2}, ! Handle
  ASHRAE 189.1-2009 ExtWall Metal ClimateZone 4-8, ! Name
  {b1da6be6-49e2-45f8-8a4d-37783f5d7a10}, ! Surface Rendering Name
  {7212f5e3-af5c-4801-89e5-cf3bba0c945f}, ! Layer 1
  {2071da5a-afbe-462b-8729-783861bdbaec}, ! Layer 2
  {f9ba6ab7-374c-49cc-967f-b48d62405f41}; ! Layer 3

OS:Construction,
  {6fd2d97e-f4df-4e36-afdf-dded7d394b91}, ! Handle
  ASHRAE 189.1-2009 ExtWall SteelFrame ClimateZone 1-3, ! Name
  {83501369-81a6-4fb7-a023-7b5723f6a16f}, ! Surface Rendering Name
  {806e6850-3f38-463d-8810-652ed67f805a}, ! Layer 1
  {afe1abe7-6d40-459e-94e0-897a74e3e7fe}, ! Layer 2
  {f9ba6ab7-374c-49cc-967f-b48d62405f41}; ! Layer 3

OS:Construction,
  {ebb04e15-8646-42a3-8e65-9ca33b4bf38e}, ! Handle
  ASHRAE 189.1-2009 ExtWall SteelFrame ClimateZone 4-8, ! Name
  {d32b234a-8c30-4fd1-a227-82c5d57cadc3}, ! Surface Rendering Name
  {806e6850-3f38-463d-8810-652ed67f805a}, ! Layer 1
  {c146f25f-715c-42ac-8e3f-429227a6b84d}, ! Layer 2
  {f9ba6ab7-374c-49cc-967f-b48d62405f41}; ! Layer 3

OS:Construction,
  {2429eabd-6832-4635-b12a-60648e434cbb}, ! Handle
  ASHRAE 189.1-2009 ExtWall WoodFrame ClimateZone 1-4, ! Name
  {a908570b-b674-4002-b1ae-90eb8eb93581}, ! Surface Rendering Name
  {6149a252-7bd5-46ec-944d-424b090bb06d}, ! Layer 1
  {94996096-85e8-4c46-b9d2-aef267b148fb}, ! Layer 2
  {f9ba6ab7-374c-49cc-967f-b48d62405f41}; ! Layer 3

OS:Construction,
  {7b783616-7ee3-4ecc-a46a-cf03727f6fe0}, ! Handle
  ASHRAE 189.1-2009 ExtWall WoodFrame ClimateZone 5, ! Name
  {8c886ddd-5480-4589-9ed9-c279d00d1751}, ! Surface Rendering Name
  {6149a252-7bd5-46ec-944d-424b090bb06d}, ! Layer 1
  {d441f76f-a512-4749-8875-081280f18a24}, ! Layer 2
  {f9ba6ab7-374c-49cc-967f-b48d62405f41}; ! Layer 3

OS:Construction,
  {a7a8abbf-1d97-4b75-a7bc-334a002345fa}, ! Handle
  ASHRAE 189.1-2009 ExtWall WoodFrame ClimateZone 6-8, ! Name
  {896a2432-3166-4600-90da-b9b66be0b56c}, ! Surface Rendering Name
  {6149a252-7bd5-46ec-944d-424b090bb06d}, ! Layer 1
  {526358c0-e2f2-48e3-9ec0-d4e64a299b92}, ! Layer 2
  {f9ba6ab7-374c-49cc-967f-b48d62405f41}; ! Layer 3

OS:Construction,
  {d96c3b73-c6d2-42f3-ae84-dc125e88ab56}, ! Handle
  ASHRAE 189.1-2009 ExtWindow ClimateZone 1, ! Name
  {9f1a8ab3-efc3-4881-8334-5326f2e28968}, ! Surface Rendering Name
  {750e3baa-3d6a-42ae-be41-568abbf8153d}; ! Layer 1

OS:Construction,
  {d5613582-6c49-41a6-a789-bd59e7abe460}, ! Handle
  ASHRAE 189.1-2009 ExtWindow ClimateZone 2, ! Name
  {0d9c5b61-15ef-4187-8885-6b9a0e057c19}, ! Surface Rendering Name
  {074626dd-24aa-4a76-9441-0cefbb4dcbea}; ! Layer 1

OS:Construction,
  {4bb653df-274a-4d76-b679-ab82343a281d}, ! Handle
  ASHRAE 189.1-2009 ExtWindow ClimateZone 3, ! Name
  {c2586158-b4e0-4da5-9145-9707e8d07d76}, ! Surface Rendering Name
  {8ab635bc-5edb-410b-aed5-060975150044}; ! Layer 1

OS:Construction,
  {dfabe3d0-fca9-4430-bfa4-f9e6a4956e11}, ! Handle
  ASHRAE 189.1-2009 ExtWindow ClimateZone 4-5, ! Name
  {3c22047a-f451-4145-b110-f5f69785fff9}, ! Surface Rendering Name
  {d703a63f-7b9d-409d-9465-1b555e3dbf62}; ! Layer 1

OS:Construction,
  {cc66883f-bd89-48ce-b636-1434b3cb72b4}, ! Handle
  ASHRAE 189.1-2009 ExtWindow ClimateZone 6, ! Name
  {3e73e993-d2e0-45e4-9abf-58f99c09e6db}, ! Surface Rendering Name
  {ed4022f9-ddf2-4365-a133-aabf6feb62aa}; ! Layer 1

OS:Construction,
  {c8fbf0bc-d7ab-435f-b0d0-fd7de5a1281c}, ! Handle
  ASHRAE 189.1-2009 ExtWindow ClimateZone 7-8, ! Name
  {b1cbba8f-b7de-49a4-8588-0c7e87316b77}, ! Surface Rendering Name
  {f40b58dc-1dfb-43bd-aea3-ef33eabda2dd}; ! Layer 1

OS:Construction,
  {40387188-288e-4af0-afb6-55cdbbcb4c11}, ! Handle
  ASHRAE 189.1-2009 ExtWindow ClimateZone alt-res 4-5, ! Name
  {ac8b901b-f27e-48d5-8ef8-6065f76cde19}, ! Surface Rendering Name
  {ed4022f9-ddf2-4365-a133-aabf6feb62aa}; ! Layer 1

OS:Construction,
  {3b3260ac-efa8-447c-b00b-528976e190c0}, ! Handle
  ASHRAE 90.1-2004 AtticFloor ClimateZone 1-5, ! Name
  {00d4e768-19fb-4911-bab9-7c2439e245cd}, ! Surface Rendering Name
  {f9ba6ab7-374c-49cc-967f-b48d62405f41}, ! Layer 1
  {de730869-9457-42f0-a9d5-c8b857aecf27}, ! Layer 2
  {f9ba6ab7-374c-49cc-967f-b48d62405f41}; ! Layer 3

OS:Construction,
  {1b846f63-64ab-4759-a159-31ba6a7899c1}, ! Handle
  ASHRAE 90.1-2004 AtticFloor ClimateZone 6-8, ! Name
  {769d1c9f-7de9-4fe0-93f4-7bf2d9442abf}, ! Surface Rendering Name
  {f9ba6ab7-374c-49cc-967f-b48d62405f41}, ! Layer 1
  {44109190-05ba-4951-89de-8b0957a37326}, ! Layer 2
  {f9ba6ab7-374c-49cc-967f-b48d62405f41}; ! Layer 3

OS:Construction,
  {98e1f446-58c9-4b2c-a0ca-dfc86f5cd472}, ! Handle
  ASHRAE 90.1-2004 ExtRoof IEAD ClimateZone 1-4, ! Name
  {98633187-a0c6-4ded-bef0-3496e87810bf}, ! Surface Rendering Name
  {2c94516f-fa6e-4196-bc5a-31ae6b1409db}, ! Layer 1
  {ba5f3e26-afeb-478e-b628-9f9a50f436f3}, ! Layer 2
  {837e7269-f042-49a6-b39e-60a96da3696d}; ! Layer 3

OS:Construction,
  {17790d30-5f6e-4213-bb11-427fd36350d6}, ! Handle
  ASHRAE 90.1-2004 ExtRoof IEAD ClimateZone 5-6, ! Name
  {95513cd6-c48c-4574-a2d4-457d2f982d9f}, ! Surface Rendering Name
  {2c94516f-fa6e-4196-bc5a-31ae6b1409db}, ! Layer 1
  {4cd4f823-ffa7-442f-95af-a2513d4a033c}, ! Layer 2
  {837e7269-f042-49a6-b39e-60a96da3696d}; ! Layer 3

OS:Construction,
  {ce15a57f-4892-418a-8b0f-80155f04422c}, ! Handle
  ASHRAE 90.1-2004 ExtRoof IEAD ClimateZone 7, ! Name
  {794c3331-28c3-4ea7-9135-dc4b0732f654}, ! Surface Rendering Name
  {2c94516f-fa6e-4196-bc5a-31ae6b1409db}, ! Layer 1
  {ba5f3e26-afeb-478e-b628-9f9a50f436f3}, ! Layer 2
  {837e7269-f042-49a6-b39e-60a96da3696d}; ! Layer 3

OS:Construction,
  {c3320889-7642-4844-8c02-7e0aab2e3f1a}, ! Handle
  ASHRAE 90.1-2004 ExtRoof IEAD ClimateZone 8, ! Name
  {f31bc103-3fd3-4801-92ad-0df9b8d6dbbe}, ! Surface Rendering Name
  {2c94516f-fa6e-4196-bc5a-31ae6b1409db}, ! Layer 1
  {3deefdb4-41df-4c73-bba5-0438a2334060}, ! Layer 2
  {837e7269-f042-49a6-b39e-60a96da3696d}; ! Layer 3

OS:Construction,
  {c0c846a4-68cb-450f-9cde-58cda24e3bdd}, ! Handle
  ASHRAE 90.1-2004 ExtRoof Metal ClimateZone 1, ! Name
  {448be2db-939d-46b4-9f1e-94c98f1bc9c1}, ! Surface Rendering Name
  {d713e359-1b31-450c-aebf-016bce0dbc4c}; ! Layer 1

OS:Construction,
  {5a7085a9-c078-4146-a918-976c8b77f848}, ! Handle
  ASHRAE 90.1-2004 ExtRoof Metal ClimateZone 2, ! Name
  {ea4a46f5-da83-42fd-a675-70b0c43c4931}, ! Surface Rendering Name
  {d713e359-1b31-450c-aebf-016bce0dbc4c}, ! Layer 1
  {b2f9bd9a-21cc-447b-84ad-18ff660df1dc}; ! Layer 2

OS:Construction,
  {4862c90e-4acb-4ed6-b4d2-9b6c553597a3}, ! Handle
  ASHRAE 90.1-2004 ExtRoof Metal ClimateZone 3-4, ! Name
  {9bd967c1-40d9-4126-ae13-a5b83cd19811}, ! Surface Rendering Name
  {d713e359-1b31-450c-aebf-016bce0dbc4c}, ! Layer 1
  {34be7a76-8b62-455d-b3bb-c8c4487f8d30}; ! Layer 2

OS:Construction,
  {949c6947-5d3f-47e4-bb2f-a987c627251a}, ! Handle
  ASHRAE 90.1-2004 ExtRoof Metal ClimateZone 5-6, ! Name
  {e7940946-cc9d-4be3-9724-5e5c8c2e2e33}, ! Surface Rendering Name
  {d713e359-1b31-450c-aebf-016bce0dbc4c}, ! Layer 1
  {e3afb78c-1d31-45ac-a754-fcc2974ac890}; ! Layer 2

OS:Construction,
  {6b393e23-5f59-46ea-95a5-f7df89b8ee9e}, ! Handle
  ASHRAE 90.1-2004 ExtRoof Metal ClimateZone 7, ! Name
  {6585e3ab-6eea-455b-83ee-9263b5fb9bca}, ! Surface Rendering Name
  {d713e359-1b31-450c-aebf-016bce0dbc4c}, ! Layer 1
  {34be7a76-8b62-455d-b3bb-c8c4487f8d30}; ! Layer 2

OS:Construction,
  {45e05e7a-ec07-40b1-96af-f6421a101a2e}, ! Handle
  ASHRAE 90.1-2004 ExtRoof Metal ClimateZone 8, ! Name
  {6980f66d-97a8-4e7f-9ef8-40b8b752dbac}, ! Surface Rendering Name
  {d713e359-1b31-450c-aebf-016bce0dbc4c}, ! Layer 1
  {9b938785-db9c-4281-98d6-23fcf8f13a8d}; ! Layer 2

OS:Construction,
  {d7218edf-4eff-45c7-b6c0-c0c3647f586c}, ! Handle
  ASHRAE 90.1-2004 ExtWall Mass ClimateZone 1-2, ! Name
  {949cdb75-5a3f-49c3-b2c5-2f0c655e696c}, ! Surface Rendering Name
  {8e5653db-62c8-4644-a765-16eac45c6a77}, ! Layer 1
  {5de64f0a-1721-4d65-b561-e051be588c18}, ! Layer 2
  {f9ba6ab7-374c-49cc-967f-b48d62405f41}; ! Layer 3

OS:Construction,
  {847e5230-26d0-41de-ac2d-412a6f0f3e8d}, ! Handle
  ASHRAE 90.1-2004 ExtWall Mass ClimateZone 3-4, ! Name
  {c2bcb560-d516-4c84-9699-3b505b7f82df}, ! Surface Rendering Name
  {8e5653db-62c8-4644-a765-16eac45c6a77}, ! Layer 1
  {5de64f0a-1721-4d65-b561-e051be588c18}, ! Layer 2
  {ef6c2faa-98c2-45d2-9244-7635b70df8fb}, ! Layer 3
  {f9ba6ab7-374c-49cc-967f-b48d62405f41}; ! Layer 4

OS:Construction,
  {f7c8f809-6f17-4b10-8f3e-8b45e2cb7455}, ! Handle
  ASHRAE 90.1-2004 ExtWall Mass ClimateZone 5, ! Name
  {fdb544ef-97a2-47b9-b697-c6fb04bfa9d4}, ! Surface Rendering Name
  {8e5653db-62c8-4644-a765-16eac45c6a77}, ! Layer 1
  {5de64f0a-1721-4d65-b561-e051be588c18}, ! Layer 2
  {0952ed42-68fd-4863-96f9-d7fee2b8b233}, ! Layer 3
  {f9ba6ab7-374c-49cc-967f-b48d62405f41}; ! Layer 4

OS:Construction,
  {3dde3a5e-e75a-4de0-81d7-721b12aa748e}, ! Handle
  ASHRAE 90.1-2004 ExtWall Mass ClimateZone 6, ! Name
  {1f9ca77d-2282-4360-9367-0da47ac5ee0d}, ! Surface Rendering Name
  {8e5653db-62c8-4644-a765-16eac45c6a77}, ! Layer 1
  {5de64f0a-1721-4d65-b561-e051be588c18}, ! Layer 2
  {335c375e-a329-461a-b6c3-e3ba1b9d34f0}, ! Layer 3
  {f9ba6ab7-374c-49cc-967f-b48d62405f41}; ! Layer 4

OS:Construction,
  {18cedd37-5caf-4e4f-9807-093609bc2b7c}, ! Handle
  ASHRAE 90.1-2004 ExtWall Mass ClimateZone 7, ! Name
  {b046b603-eea8-441b-8ccf-7570c214b4fb}, ! Surface Rendering Name
  {8e5653db-62c8-4644-a765-16eac45c6a77}, ! Layer 1
  {5de64f0a-1721-4d65-b561-e051be588c18}, ! Layer 2
  {506cd953-89b5-4548-b5c2-d2132074f0a7}, ! Layer 3
  {f9ba6ab7-374c-49cc-967f-b48d62405f41}; ! Layer 4

OS:Construction,
  {19acbf21-ecc6-445f-a364-e8aac9d5c804}, ! Handle
  ASHRAE 90.1-2004 ExtWall Mass ClimateZone 8, ! Name
  {97f86a12-b496-46fc-be3d-97e593c19217}, ! Surface Rendering Name
  {8e5653db-62c8-4644-a765-16eac45c6a77}, ! Layer 1
  {5de64f0a-1721-4d65-b561-e051be588c18}, ! Layer 2
  {fe480d3c-fef1-4178-8dc7-c0bdf798e6cd}, ! Layer 3
  {f9ba6ab7-374c-49cc-967f-b48d62405f41}; ! Layer 4

OS:Construction,
  {260df263-8c58-47fc-818d-edcee79c4be1}, ! Handle
  ASHRAE 90.1-2004 ExtWall Mass ClimateZone alt-res 1-2, ! Name
  {e2474df1-7a61-430e-8a7f-267a8a1ab119}, ! Surface Rendering Name
  {8e5653db-62c8-4644-a765-16eac45c6a77}, ! Layer 1
  {5de64f0a-1721-4d65-b561-e051be588c18}, ! Layer 2
  {ef6c2faa-98c2-45d2-9244-7635b70df8fb}, ! Layer 3
  {f9ba6ab7-374c-49cc-967f-b48d62405f41}; ! Layer 4

OS:Construction,
  {ae19db38-a914-45f2-87e8-6ba831105a13}, ! Handle
  ASHRAE 90.1-2004 ExtWall Mass ClimateZone alt-res 3, ! Name
  {8f155012-d1e5-4bc9-a234-b0850d476681}, ! Surface Rendering Name
  {8e5653db-62c8-4644-a765-16eac45c6a77}, ! Layer 1
  {5de64f0a-1721-4d65-b561-e051be588c18}, ! Layer 2
  {0952ed42-68fd-4863-96f9-d7fee2b8b233}, ! Layer 3
  {f9ba6ab7-374c-49cc-967f-b48d62405f41}; ! Layer 4

OS:Construction,
  {c26088f5-79cf-497d-96fa-5cf71e6d6ed5}, ! Handle
  ASHRAE 90.1-2004 ExtWall Mass ClimateZone alt-res 4, ! Name
  {a9ec8082-575e-40bf-a97e-bdea4b8e6928}, ! Surface Rendering Name
  {8e5653db-62c8-4644-a765-16eac45c6a77}, ! Layer 1
  {5de64f0a-1721-4d65-b561-e051be588c18}, ! Layer 2
  {335c375e-a329-461a-b6c3-e3ba1b9d34f0}, ! Layer 3
  {f9ba6ab7-374c-49cc-967f-b48d62405f41}; ! Layer 4

OS:Construction,
  {9238d6f3-e79a-403f-a4fd-435d03499776}, ! Handle
  ASHRAE 90.1-2004 ExtWall Mass ClimateZone alt-res 5-6, ! Name
  {970dfae8-9f44-42b5-8500-2fe0f458e509}, ! Surface Rendering Name
  {8e5653db-62c8-4644-a765-16eac45c6a77}, ! Layer 1
  {5de64f0a-1721-4d65-b561-e051be588c18}, ! Layer 2
  {506cd953-89b5-4548-b5c2-d2132074f0a7}, ! Layer 3
  {f9ba6ab7-374c-49cc-967f-b48d62405f41}; ! Layer 4

OS:Construction,
  {1b93d192-b38d-436d-923e-b8da28bd6bce}, ! Handle
  ASHRAE 90.1-2004 ExtWall Mass ClimateZone alt-res 7, ! Name
  {87d44c93-7691-42bc-836a-f3d5759cb94f}, ! Surface Rendering Name
  {8e5653db-62c8-4644-a765-16eac45c6a77}, ! Layer 1
  {5de64f0a-1721-4d65-b561-e051be588c18}, ! Layer 2
  {fe480d3c-fef1-4178-8dc7-c0bdf798e6cd}, ! Layer 3
  {f9ba6ab7-374c-49cc-967f-b48d62405f41}; ! Layer 4

OS:Construction,
  {9baeac58-68e0-42e1-bfa5-96be31020224}, ! Handle
  ASHRAE 90.1-2004 ExtWall Mass ClimateZone alt-res 8, ! Name
  {0d61cacb-5913-4419-9df5-bf484b961711}, ! Surface Rendering Name
  {8e5653db-62c8-4644-a765-16eac45c6a77}, ! Layer 1
  {5de64f0a-1721-4d65-b561-e051be588c18}, ! Layer 2
  {6224c508-ba3d-4e29-bd04-934668c9a1a0}, ! Layer 3
  {f9ba6ab7-374c-49cc-967f-b48d62405f41}; ! Layer 4

OS:Construction,
  {a0e146c1-2ad6-427f-bc9b-ba77a39df961}, ! Handle
  ASHRAE 90.1-2004 ExtWall Metal ClimateZone 1, ! Name
  {518fae3f-c9c3-4b0b-836b-7ee6c808c271}, ! Surface Rendering Name
  {7212f5e3-af5c-4801-89e5-cf3bba0c945f}, ! Layer 1
  {f9ba6ab7-374c-49cc-967f-b48d62405f41}; ! Layer 2

OS:Construction,
  {2de43d3e-ba0e-4802-9e61-295173beef0a}, ! Handle
  ASHRAE 90.1-2004 ExtWall Metal ClimateZone 2-3, ! Name
  {63fa0529-ffd2-4b62-adac-b15436e6428d}, ! Surface Rendering Name
  {7212f5e3-af5c-4801-89e5-cf3bba0c945f}, ! Layer 1
  {74c40aa7-915b-426c-b7ef-e32a492e44ee}, ! Layer 2
  {f9ba6ab7-374c-49cc-967f-b48d62405f41}; ! Layer 3

OS:Construction,
  {525edf35-df71-48eb-95a0-fdb26d90cb5d}, ! Handle
  ASHRAE 90.1-2004 ExtWall Metal ClimateZone 4, ! Name
  {8503bd76-298d-42ab-9bf1-5c5a21ae36f3}, ! Surface Rendering Name
  {7212f5e3-af5c-4801-89e5-cf3bba0c945f}, ! Layer 1
  {3fc958eb-9a06-427a-94ab-c00d94f2aa39}, ! Layer 2
  {f9ba6ab7-374c-49cc-967f-b48d62405f41}; ! Layer 3

OS:Construction,
  {96db9a87-8a57-426e-8154-b3f8c9aab537}, ! Handle
  ASHRAE 90.1-2004 ExtWall Metal ClimateZone 5, ! Name
  {68f13220-42ca-4b64-a7b3-956c6c251fb0}, ! Surface Rendering Name
  {7212f5e3-af5c-4801-89e5-cf3bba0c945f}, ! Layer 1
  {4b2eed03-fa87-4239-b171-b2b108f1a283}, ! Layer 2
  {f9ba6ab7-374c-49cc-967f-b48d62405f41}; ! Layer 3

OS:Construction,
  {c8e23e75-9604-4306-bcad-70f4590867d6}, ! Handle
  ASHRAE 90.1-2004 ExtWall Metal ClimateZone 6-8, ! Name
  {19c3f683-4fb5-4be7-992d-34ad7716ceb9}, ! Surface Rendering Name