
OS:Version,
  {88eebf0b-e947-46cc-bfee-9113d23ee8cb}, !- Handle
  1.3.3;                                  !- Version Identifier

OS:Construction,
  {39ba50ea-adff-40c0-bc36-72aa918970d4}, !- Handle
  ASHRAE 189.1-2009 AtticFloor ClimateZone 1-8, !- Name
  ,                                       !- Surface Rendering Name
  {62f26654-d431-46b6-ae26-dcee9229e7b2}, !- Layer 1
  {da76a8f7-8583-44c3-8f11-be6533bc1280}, !- Layer 2
  {62f26654-d431-46b6-ae26-dcee9229e7b2}; !- Layer 3

OS:StandardsInformation:Construction,
  {2370fa89-c488-4004-b1ec-be295e0736e4}, !- Handle
  {39ba50ea-adff-40c0-bc36-72aa918970d4}, !- Construction Name
  AtticFloor,                             !- Intended Surface Type
  WoodFramed;                             !- Standards Construction Type

OS:Material,
  {62f26654-d431-46b6-ae26-dcee9229e7b2}, !- Handle
  1/2IN Gypsum,                           !- Name
  Smooth,                                 !- Roughness
  0.0127,                                 !- Thickness {m}
  0.16,                                   !- Conductivity {W/m-K}
  784.9,                                  !- Density {kg/m3}
  830.000000000001,                       !- Specific Heat {J/kg-K}
  0.9,                                    !- Thermal Absorptance
  0.92,                                   !- Solar Absorptance
  0.92;                                   !- Visible Absorptance

OS:Material,
  {da76a8f7-8583-44c3-8f11-be6533bc1280}, !- Handle
  AtticFloor Insulation,                  !- Name
  MediumRough,                            !- Roughness
  0.2379,                                 !- Thickness {m}
  0.049,                                  !- Conductivity {W/m-K}
  265,                                    !- Density {kg/m3}
  836.800000000001,                       !- Specific Heat {J/kg-K}
  0.9,                                    !- Thermal Absorptance
  0.7,                                    !- Solar Absorptance
  0.7;                                    !- Visible Absorptance

OS:Construction,
  {1107f09a-d946-4c49-8c5b-1a6c5c520661}, !- Handle
  ASHRAE 189.1-2009 ExtRoof IEAD ClimateZone 1, !- Name
  ,                                       !- Surface Rendering Name
  {0a1ce340-6cd3-44c2-b656-0c2018181e65}, !- Layer 1
  {35f75e1f-5dfa-4aea-8f29-ce26ff248db7}, !- Layer 2
  {69278476-0db6-4f90-bd72-a55098499e9c}; !- Layer 3

OS:StandardsInformation:Construction,
  {20430d31-a9f1-419e-b833-70bbca47096f}, !- Handle
  {1107f09a-d946-4c49-8c5b-1a6c5c520661}, !- Construction Name
  ExteriorRoof,                           !- Intended Surface Type
  IEAD;                                   !- Standards Construction Type

OS:Material,
  {0a1ce340-6cd3-44c2-b656-0c2018181e65}, !- Handle
  Roof Membrane,                          !- Name
  VeryRough,                              !- Roughness
  0.0095,                                 !- Thickness {m}
  0.16,                                   !- Conductivity {W/m-K}
  1121.29,                                !- Density {kg/m3}
  1460,                                   !- Specific Heat {J/kg-K}
  0.9,                                    !- Thermal Absorptance
  0.7,                                    !- Solar Absorptance
  0.7;                                    !- Visible Absorptance

OS:Material,
  {35f75e1f-5dfa-4aea-8f29-ce26ff248db7}, !- Handle
  Roof Insulation [18],                   !- Name
  MediumRough,                            !- Roughness
  0.1693,                                 !- Thickness {m}
  0.049,                                  !- Conductivity {W/m-K}
  265,                                    !- Density {kg/m3}
  836.800000000001,                       !- Specific Heat {J/kg-K}
  0.9,                                    !- Thermal Absorptance
  0.7,                                    !- Solar Absorptance
  0.7;                                    !- Visible Absorptance

OS:Material,
  {69278476-0db6-4f90-bd72-a55098499e9c}, !- Handle
  Metal Decking,                          !- Name
  MediumSmooth,                           !- Roughness
  0.0015,                                 !- Thickness {m}
  45.006,                                 !- Conductivity {W/m-K}
  7680,                                   !- Density {kg/m3}
  418.4,                                  !- Specific Heat {J/kg-K}
  0.9,                                    !- Thermal Absorptance
  0.7,                                    !- Solar Absorptance
  0.3;                                    !- Visible Absorptance

OS:Construction,
  {f7c39d13-1d93-409d-bb36-a66d27853e76}, !- Handle
  ASHRAE 189.1-2009 ExtRoof IEAD ClimateZone 2-5, !- Name
  ,                                       !- Surface Rendering Name
  {0a1ce340-6cd3-44c2-b656-0c2018181e65}, !- Layer 1
  {a9ec3c7f-3bb8-4959-b6ca-3b93d141a181}, !- Layer 2
  {69278476-0db6-4f90-bd72-a55098499e9c}; !- Layer 3

OS:StandardsInformation:Construction,
  {0d1b28fc-ed9c-49ba-ba91-8b0a8d3f281c}, !- Handle
  {f7c39d13-1d93-409d-bb36-a66d27853e76}, !- Construction Name
  ExteriorRoof,                           !- Intended Surface Type
  IEAD;                                   !- Standards Construction Type

OS:Material,
  {a9ec3c7f-3bb8-4959-b6ca-3b93d141a181}, !- Handle
  Roof Insulation [21],                   !- Name
  MediumRough,                            !- Roughness
  0.2105,                                 !- Thickness {m}
  0.049,                                  !- Conductivity {W/m-K}
  265,                                    !- Density {kg/m3}
  836.800000000001,                       !- Specific Heat {J/kg-K}
  0.9,                                    !- Thermal Absorptance
  0.7,                                    !- Solar Absorptance
  0.7;                                    !- Visible Absorptance

OS:Construction,
  {32efe8b9-7d4c-4d12-b2b7-7fa2ce0e46eb}, !- Handle
  ASHRAE 189.1-2009 ExtRoof IEAD ClimateZone 6, !- Name
  ,                                       !- Surface Rendering Name
  {0a1ce340-6cd3-44c2-b656-0c2018181e65}, !- Layer 1
  {308df05c-0166-436e-8b13-25815db04f1c}, !- Layer 2
  {69278476-0db6-4f90-bd72-a55098499e9c}; !- Layer 3

OS:StandardsInformation:Construction,
  {ed8576de-a54c-4692-aaa7-48661833b6ca}, !- Handle
  {32efe8b9-7d4c-4d12-b2b7-7fa2ce0e46eb}, !- Construction Name
  ExteriorRoof,                           !- Intended Surface Type
  IEAD;                                   !- Standards Construction Type

OS:Material,
  {308df05c-0166-436e-8b13-25815db04f1c}, !- Handle
  Roof Insulation [24],                   !- Name
  MediumRough,                            !- Roughness
  0.260100000000001,                      !- Thickness {m}
  0.049,                                  !- Conductivity {W/m-K}
  265,                                    !- Density {kg/m3}
  836.800000000001,                       !- Specific Heat {J/kg-K}
  0.9,                                    !- Thermal Absorptance
  0.7,                                    !- Solar Absorptance
  0.7;                                    !- Visible Absorptance

OS:Construction,
  {ec8e28d2-1078-4b1f-9162-45a9be91de4f}, !- Handle
  ASHRAE 189.1-2009 ExtRoof IEAD ClimateZone 7-8, !- Name
  ,                                       !- Surface Rendering Name
  {0a1ce340-6cd3-44c2-b656-0c2018181e65}, !- Layer 1
  {375ac3b2-1f56-46c5-a7ea-747aebb4d4c7}, !- Layer 2
  {69278476-0db6-4f90-bd72-a55098499e9c}; !- Layer 3

OS:StandardsInformation:Construction,
  {8e5932ba-6c58-41ac-b04c-e95a59455589}, !- Handle
  {ec8e28d2-1078-4b1f-9162-45a9be91de4f}, !- Construction Name
  ExteriorRoof,                           !- Intended Surface Type
  IEAD;                                   !- Standards Construction Type

OS:Material,
  {375ac3b2-1f56-46c5-a7ea-747aebb4d4c7}, !- Handle
  Roof Insulation [26],                   !- Name
  MediumRough,                            !- Roughness
  0.2941,                                 !- Thickness {m}
  0.049,                                  !- Conductivity {W/m-K}
  265,                                    !- Density {kg/m3}
  836.800000000001,                       !- Specific Heat {J/kg-K}
  0.9,                                    !- Thermal Absorptance
  0.7,                                    !- Solar Absorptance
  0.7;                                    !- Visible Absorptance

OS:Construction,
  {56ffcc90-b9a4-49a3-b101-7425a668778e}, !- Handle
  ASHRAE 189.1-2009 ExtRoof Metal ClimateZone 1, !- Name
  ,                                       !- Surface Rendering Name
  {7fbbf12f-5749-4fae-8554-3b7ec9b93e8d}, !- Layer 1
  {f6ae61b2-1b7f-4381-9c11-b356e17bec6c}; !- Layer 2

OS:StandardsInformation:Construction,
  {6e8ae8da-f5ee-4436-8b72-16097095164d}, !- Handle
  {56ffcc90-b9a4-49a3-b101-7425a668778e}, !- Construction Name
  ExteriorRoof,                           !- Intended Surface Type
  Metal;                                  !- Standards Construction Type

OS:Material,
  {7fbbf12f-5749-4fae-8554-3b7ec9b93e8d}, !- Handle
  Metal Roofing,                          !- Name
  MediumSmooth,                           !- Roughness
  0.0015,                                 !- Thickness {m}
  45.006,                                 !- Conductivity {W/m-K}
  7680,                                   !- Density {kg/m3}
  418.4,                                  !- Specific Heat {J/kg-K}
  0.9,                                    !- Thermal Absorptance
  0.3,                                    !- Solar Absorptance
  0.3;                                    !- Visible Absorptance

OS:Material,
  {f6ae61b2-1b7f-4381-9c11-b356e17bec6c}, !- Handle
  Roof Insulation [19],                   !- Name
  MediumRough,                            !- Roughness
  0.1868,                                 !- Thickness {m}
  0.049,                                  !- Conductivity {W/m-K}
  265,                                    !- Density {kg/m3}
  836.800000000001,                       !- Specific Heat {J/kg-K}
  0.9,                                    !- Thermal Absorptance
  0.7,                                    !- Solar Absorptance
  0.7;                                    !- Visible Absorptance

OS:Construction,
  {9c40d6d4-91ca-4179-8d1a-19090167e4dc}, !- Handle
  ASHRAE 189.1-2009 ExtRoof Metal ClimateZone 2-5, !- Name
  ,                                       !- Surface Rendering Name
  {7fbbf12f-5749-4fae-8554-3b7ec9b93e8d}, !- Layer 1
  {9eaa7e84-fa4f-4a84-a718-e4ae74533a97}; !- Layer 2

OS:StandardsInformation:Construction,
  {1e0b0518-97ee-45db-b700-682b05f3c236}, !- Handle
  {9c40d6d4-91ca-4179-8d1a-19090167e4dc}, !- Construction Name
  ExteriorRoof,                           !- Intended Surface Type
  Metal;                                  !- Standards Construction Type

OS:Material,
  {9eaa7e84-fa4f-4a84-a718-e4ae74533a97}, !- Handle
  Roof Insulation [22],                   !- Name
  MediumRough,                            !- Roughness
  0.2358,                                 !- Thickness {m}
  0.049,                                  !- Conductivity {W/m-K}
  265,                                    !- Density {kg/m3}
  836.800000000001,                       !- Specific Heat {J/kg-K}
  0.9,                                    !- Thermal Absorptance
  0.7,                                    !- Solar Absorptance
  0.7;                                    !- Visible Absorptance

OS:Construction,
  {b34ec409-abc7-4411-8b00-9fcf70085a83}, !- Handle
  ASHRAE 189.1-2009 ExtRoof Metal ClimateZone 6, !- Name
  ,                                       !- Surface Rendering Name
  {7fbbf12f-5749-4fae-8554-3b7ec9b93e8d}, !- Layer 1
  {225a65a5-7a0a-4d13-85e4-2808a8d51329}; !- Layer 2

OS:StandardsInformation:Construction,
  {c662da1b-4863-4941-b26b-99c55e23e754}, !- Handle
  {b34ec409-abc7-4411-8b00-9fcf70085a83}, !- Construction Name
  ExteriorRoof,                           !- Intended Surface Type
  Metal;                                  !- Standards Construction Type

OS:Material,
  {225a65a5-7a0a-4d13-85e4-2808a8d51329}, !- Handle
  Roof Insulation [25],                   !- Name
  MediumRough,                            !- Roughness
  0.263,                                  !- Thickness {m}
  0.049,                                  !- Conductivity {W/m-K}
  265,                                    !- Density {kg/m3}
  836.800000000001,                       !- Specific Heat {J/kg-K}
  0.9,                                    !- Thermal Absorptance
  0.7,                                    !- Solar Absorptance
  0.7;                                    !- Visible Absorptance

OS:Construction,
  {c72a2d7c-5e98-4260-8ea5-5c9f22aa4696}, !- Handle
  ASHRAE 189.1-2009 ExtRoof Metal ClimateZone 7-8, !- Name
  ,                                       !- Surface Rendering Name
  {7fbbf12f-5749-4fae-8554-3b7ec9b93e8d}, !- Layer 1
  {5a660f57-a531-4f6e-b3c8-20782b41947e}; !- Layer 2

OS:StandardsInformation:Construction,
  {c71030c9-56a4-4436-8565-3f064e4deef5}, !- Handle
  {c72a2d7c-5e98-4260-8ea5-5c9f22aa4696}, !- Construction Name
  ExteriorRoof,                           !- Intended Surface Type
  Metal;                                  !- Standards Construction Type

OS:Material,
  {5a660f57-a531-4f6e-b3c8-20782b41947e}, !- Handle
  Roof Insulation [27],                   !- Name
  MediumRough,                            !- Roughness
  0.297000000000001,                      !- Thickness {m}
  0.049,                                  !- Conductivity {W/m-K}
  265,                                    !- Density {kg/m3}
  836.800000000001,                       !- Specific Heat {J/kg-K}
  0.9,                                    !- Thermal Absorptance
  0.7,                                    !- Solar Absorptance
  0.7;                                    !- Visible Absorptance

OS:Construction,
  {ef1a71c7-3a2c-4f99-91f9-c1b5c3a585a4}, !- Handle
  ASHRAE 189.1-2009 ExtWall Mass ClimateZone 1, !- Name
  ,                                       !- Surface Rendering Name
  {d6f65aba-5e0e-4b29-b4fb-16469d27d258}, !- Layer 1
  {98e38902-9592-41ed-8ab6-c28a76a02535}, !- Layer 2
  {51fcca4c-2751-4997-88c2-eacd996ff072}, !- Layer 3
  {62f26654-d431-46b6-ae26-dcee9229e7b2}; !- Layer 4

OS:StandardsInformation:Construction,
  {7893c825-d1d9-46e2-99f1-2fcd2cd1b96c}, !- Handle
  {ef1a71c7-3a2c-4f99-91f9-c1b5c3a585a4}, !- Construction Name
  ExteriorWall,                           !- Intended Surface Type
  Mass;                                   !- Standards Construction Type

OS:Material,
  {d6f65aba-5e0e-4b29-b4fb-16469d27d258}, !- Handle
  1IN Stucco,                             !- Name
  Smooth,                                 !- Roughness
  0.0253,                                 !- Thickness {m}
  0.691799999999999,                      !- Conductivity {W/m-K}
  1858,                                   !- Density {kg/m3}
  836.999999999999,                       !- Specific Heat {J/kg-K}
  0.9,                                    !- Thermal Absorptance
  0.92,                                   !- Solar Absorptance
  0.92;                                   !- Visible Absorptance

OS:Material,
  {98e38902-9592-41ed-8ab6-c28a76a02535}, !- Handle
  8IN Concrete HW,                        !- Name
  MediumRough,                            !- Roughness
  0.2033,                                 !- Thickness {m}
  1.72959999999999,                       !- Conductivity {W/m-K}
  2242.99999999999,                       !- Density {kg/m3}
  836.999999999999,                       !- Specific Heat {J/kg-K}
  0.9,                                    !- Thermal Absorptance
  0.65,                                   !- Solar Absorptance
  0.65;                                   !- Visible Absorptance

OS:Material,
  {51fcca4c-2751-4997-88c2-eacd996ff072}, !- Handle
  Wall Insulation [31],                   !- Name
  MediumRough,                            !- Roughness
  0.0337000000000001,                     !- Thickness {m}
  0.0432,                                 !- Conductivity {W/m-K}
  91,                                     !- Density {kg/m3}
  836.999999999999,                       !- Specific Heat {J/kg-K}
  0.9,                                    !- Thermal Absorptance
  0.5,                                    !- Solar Absorptance
  0.5;                                    !- Visible Absorptance

OS:Construction,
  {38e3b5ca-8d16-4833-8aa9-6a0d213613de}, !- Handle
  ASHRAE 189.1-2009 ExtWall Mass ClimateZone 2, !- Name
  ,                                       !- Surface Rendering Name
  {d6f65aba-5e0e-4b29-b4fb-16469d27d258}, !- Layer 1
  {98e38902-9592-41ed-8ab6-c28a76a02535}, !- Layer 2
  {30554200-6a9a-4b18-ac1c-ca9d244901b9}, !- Layer 3
  {62f26654-d431-46b6-ae26-dcee9229e7b2}; !- Layer 4

OS:StandardsInformation:Construction,
  {a2b7b929-92b3-4920-80f7-846e3c11ffab}, !- Handle
  {38e3b5ca-8d16-4833-8aa9-6a0d213613de}, !- Construction Name
  ExteriorWall,                           !- Intended Surface Type
  Mass;                                   !- Standards Construction Type

OS:Material,
  {30554200-6a9a-4b18-ac1c-ca9d244901b9}, !- Handle
  Wall Insulation [35],                   !- Name
  MediumRough,                            !- Roughness
  0.0452,                                 !- Thickness {m}
  0.0432,                                 !- Conductivity {W/m-K}
  91,                                     !- Density {kg/m3}
  836.999999999999,                       !- Specific Heat {J/kg-K}
  0.9,                                    !- Thermal Absorptance
  0.5,                                    !- Solar Absorptance
  0.5;                                    !- Visible Absorptance

OS:Construction,
  {fa7f5095-fcdc-474a-998b-09b92f71fe29}, !- Handle
  ASHRAE 189.1-2009 ExtWall Mass ClimateZone 3, !- Name
  ,                                       !- Surface Rendering Name
  {d6f65aba-5e0e-4b29-b4fb-16469d27d258}, !- Layer 1
  {98e38902-9592-41ed-8ab6-c28a76a02535}, !- Layer 2
  {fd1d8958-4d21-46e0-9390-1a2604c864f9}, !- Layer 3
  {62f26654-d431-46b6-ae26-dcee9229e7b2}; !- Layer 4

OS:StandardsInformation:Construction,
  {8bbbd112-9d00-4a08-844f-b970b8b36b88}, !- Handle
  {fa7f5095-fcdc-474a-998b-09b92f71fe29}, !- Construction Name
  ExteriorWall,                           !- Intended Surface Type
  Mass;                                   !- Standards Construction Type

OS:Material,
  {fd1d8958-4d21-46e0-9390-1a2604c864f9}, !- Handle
  Wall Insulation [36],                   !- Name
  MediumRough,                            !- Roughness
  0.0565999999999999,                     !- Thickness {m}
  0.0432,                                 !- Conductivity {W/m-K}
  91,                                     !- Density {kg/m3}
  836.999999999999,                       !- Specific Heat {J/kg-K}
  0.9,                                    !- Thermal Absorptance
  0.5,                                    !- Solar Absorptance
  0.5;                                    !- Visible Absorptance

OS:Construction,
  {64931c40-0435-4293-abc7-fef8b802b70a}, !- Handle
  ASHRAE 189.1-2009 ExtWall Mass ClimateZone 4, !- Name
  ,                                       !- Surface Rendering Name
  {d6f65aba-5e0e-4b29-b4fb-16469d27d258}, !- Layer 1
  {98e38902-9592-41ed-8ab6-c28a76a02535}, !- Layer 2
  {d0b5bf11-2718-4afd-a8f1-16765a2a0fc2}, !- Layer 3
  {62f26654-d431-46b6-ae26-dcee9229e7b2}; !- Layer 4

OS:StandardsInformation:Construction,
  {d39de1f8-3437-40c3-bc85-15ef943be528}, !- Handle
  {64931c40-0435-4293-abc7-fef8b802b70a}, !- Construction Name
  ExteriorWall,                           !- Intended Surface Type
  Mass;                                   !- Standards Construction Type

OS:Material,
  {d0b5bf11-2718-4afd-a8f1-16765a2a0fc2}, !- Handle
  Wall Insulation [37],                   !- Name
  MediumRough,                            !- Roughness
  0.0680999999999999,                     !- Thickness {m}
  0.0432,                                 !- Conductivity {W/m-K}
  91,                                     !- Density {kg/m3}
  836.999999999999,                       !- Specific Heat {J/kg-K}
  0.9,                                    !- Thermal Absorptance
  0.5,                                    !- Solar Absorptance
  0.5;                                    !- Visible Absorptance

OS:Construction,
  {e43e8fd7-a4b4-47f5-b9d3-b784ec1f8e35}, !- Handle
  ASHRAE 189.1-2009 ExtWall Mass ClimateZone 5, !- Name
  ,                                       !- Surface Rendering Name
  {d6f65aba-5e0e-4b29-b4fb-16469d27d258}, !- Layer 1
  {98e38902-9592-41ed-8ab6-c28a76a02535}, !- Layer 2
  {efa6399b-8bd1-42d9-b31e-1c2f29e9cb69}, !- Layer 3
  {62f26654-d431-46b6-ae26-dcee9229e7b2}; !- Layer 4

OS:StandardsInformation:Construction,
  {0145b8e1-234b-44e1-9a6a-96c96167ff59}, !- Handle
  {e43e8fd7-a4b4-47f5-b9d3-b784ec1f8e35}, !- Construction Name
  ExteriorWall,                           !- Intended Surface Type
  Mass;                                   !- Standards Construction Type

OS:Material,
  {efa6399b-8bd1-42d9-b31e-1c2f29e9cb69}, !- Handle
  Wall Insulation [40],                   !- Name
  MediumRough,                            !- Roughness
  0.0793999999999999,                     !- Thickness {m}
  0.0432,                                 !- Conductivity {W/m-K}
  91,                                     !- Density {kg/m3}
  836.999999999999,                       !- Specific Heat {J/kg-K}
  0.9,                                    !- Thermal Absorptance
  0.5,                                    !- Solar Absorptance
  0.5;                                    !- Visible Absorptance

OS:Construction,
  {3a3b7ce0-b2a4-4a77-9ff2-9dad1f84e7c8}, !- Handle
  ASHRAE 189.1-2009 ExtWall Mass ClimateZone 6, !- Name
  ,                                       !- Surface Rendering Name
  {d6f65aba-5e0e-4b29-b4fb-16469d27d258}, !- Layer 1
  {98e38902-9592-41ed-8ab6-c28a76a02535}, !- Layer 2
  {2f2a4db1-d64a-4c41-ae3c-6b0e5b6530d7}, !- Layer 3
  {62f26654-d431-46b6-ae26-dcee9229e7b2}; !- Layer 4

OS:StandardsInformation:Construction,
  {f0c7b9c3-03ba-49ee-bc41-ebc99d67fc07}, !- Handle
  {3a3b7ce0-b2a4-4a77-9ff2-9dad1f84e7c8}, !- Construction Name
  ExteriorWall,                           !- Intended Surface Type
  Mass;                                   !- Standards Construction Type

OS:Material,
  {2f2a4db1-d64a-4c41-ae3c-6b0e5b6530d7}, !- Handle
  Wall Insulation [42],                   !- Name
  MediumRough,                            !- Roughness
  0.0913999999999999,                     !- Thickness {m}
  0.0432,                                 !- Conductivity {W/m-K}
  91,                                     !- Density {kg/m3}
  836.999999999999,                       !- Specific Heat {J/kg-K}
  0.9,                                    !- Thermal Absorptance
  0.5,                                    !- Solar Absorptance
  0.5;                                    !- Visible Absorptance

OS:Construction,
  {43436e95-adbf-49cd-a64e-336e87a33a08}, !- Handle
  ASHRAE 189.1-2009 ExtWall Mass ClimateZone 7-8, !- Name
  ,                                       !- Surface Rendering Name
  {d6f65aba-5e0e-4b29-b4fb-16469d27d258}, !- Layer 1
  {98e38902-9592-41ed-8ab6-c28a76a02535}, !- Layer 2
  {e091743c-5796-43aa-9100-70cb522d14ef}, !- Layer 3
  {62f26654-d431-46b6-ae26-dcee9229e7b2}; !- Layer 4

OS:StandardsInformation:Construction,
  {ccdc916c-1e37-4f1b-84eb-af9e15d52300}, !- Handle
  {43436e95-adbf-49cd-a64e-336e87a33a08}, !- Construction Name
  ExteriorWall,                           !- Intended Surface Type
  Mass;                                   !- Standards Construction Type

OS:Material,
  {e091743c-5796-43aa-9100-70cb522d14ef}, !- Handle
  Wall Insulation [44],                   !- Name
  MediumRough,                            !- Roughness
  0.1104,                                 !- Thickness {m}
  0.0432,                                 !- Conductivity {W/m-K}
  91,                                     !- Density {kg/m3}
  836.999999999999,                       !- Specific Heat {J/kg-K}
  0.9,                                    !- Thermal Absorptance
  0.5,                                    !- Solar Absorptance
  0.5;                                    !- Visible Absorptance

OS:Construction,
  {65db938a-add9-4811-9088-5fb77ada25f6}, !- Handle
  ASHRAE 189.1-2009 ExtWall Mass ClimateZone alt-res 1, !- Name
  ,                                       !- Surface Rendering Name
  {d6f65aba-5e0e-4b29-b4fb-16469d27d258}, !- Layer 1
  {98e38902-9592-41ed-8ab6-c28a76a02535}, !- Layer 2
  {30554200-6a9a-4b18-ac1c-ca9d244901b9}, !- Layer 3
  {62f26654-d431-46b6-ae26-dcee9229e7b2}; !- Layer 4

OS:StandardsInformation:Construction,
  {a6de806a-6583-4751-aa66-6d838eb0af46}, !- Handle
  {65db938a-add9-4811-9088-5fb77ada25f6}, !- Construction Name
  ExteriorWall,                           !- Intended Surface Type
  Mass;                                   !- Standards Construction Type

OS:Construction,
  {47d794cb-2406-4576-af82-ae4ba2ea12c9}, !- Handle
  ASHRAE 189.1-2009 ExtWall Mass ClimateZone alt-res 2, !- Name
  ,                                       !- Surface Rendering Name
  {d6f65aba-5e0e-4b29-b4fb-16469d27d258}, !- Layer 1
  {98e38902-9592-41ed-8ab6-c28a76a02535}, !- Layer 2
  {fd1d8958-4d21-46e0-9390-1a2604c864f9}, !- Layer 3
  {62f26654-d431-46b6-ae26-dcee9229e7b2}; !- Layer 4

OS:StandardsInformation:Construction,
  {a5d87e59-26d8-4e17-bec2-8053f4b4552e}, !- Handle
  {47d794cb-2406-4576-af82-ae4ba2ea12c9}, !- Construction Name
  ExteriorWall,                           !- Intended Surface Type
  Mass;                                   !- Standards Construction Type

OS:Construction,
  {0ff7111b-917b-4a63-b0e9-7eeb4ecef5ec}, !- Handle
  ASHRAE 189.1-2009 ExtWall Mass ClimateZone alt-res 3, !- Name
  ,                                       !- Surface Rendering Name
  {d6f65aba-5e0e-4b29-b4fb-16469d27d258}, !- Layer 1
  {98e38902-9592-41ed-8ab6-c28a76a02535}, !- Layer 2
  {d0b5bf11-2718-4afd-a8f1-16765a2a0fc2}, !- Layer 3
  {62f26654-d431-46b6-ae26-dcee9229e7b2}; !- Layer 4

OS:StandardsInformation:Construction,
  {2e03c5c7-ee6a-451f-be3a-790c7eb2aec2}, !- Handle
  {0ff7111b-917b-4a63-b0e9-7eeb4ecef5ec}, !- Construction Name
  ExteriorWall,                           !- Intended Surface Type
  Mass;                                   !- Standards Construction Type

OS:Construction,
  {4bb3f835-7a26-4925-a681-ffbd3c96acff}, !- Handle
  ASHRAE 189.1-2009 ExtWall Mass ClimateZone alt-res 4, !- Name
  ,                                       !- Surface Rendering Name
  {d6f65aba-5e0e-4b29-b4fb-16469d27d258}, !- Layer 1
  {98e38902-9592-41ed-8ab6-c28a76a02535}, !- Layer 2
  {efa6399b-8bd1-42d9-b31e-1c2f29e9cb69}, !- Layer 3
  {62f26654-d431-46b6-ae26-dcee9229e7b2}; !- Layer 4

OS:StandardsInformation:Construction,
  {3ec6b05b-263e-4ac6-b02b-2702cfec0488}, !- Handle
  {4bb3f835-7a26-4925-a681-ffbd3c96acff}, !- Construction Name
  ExteriorWall,                           !- Intended Surface Type
  Mass;                                   !- Standards Construction Type

OS:Construction,
  {1fa99bbd-b6dd-4864-b207-1359d06197dd}, !- Handle
  ASHRAE 189.1-2009 ExtWall Mass ClimateZone alt-res 5, !- Name
  ,                                       !- Surface Rendering Name
  {d6f65aba-5e0e-4b29-b4fb-16469d27d258}, !- Layer 1
  {98e38902-9592-41ed-8ab6-c28a76a02535}, !- Layer 2
  {2f2a4db1-d64a-4c41-ae3c-6b0e5b6530d7}, !- Layer 3
  {62f26654-d431-46b6-ae26-dcee9229e7b2}; !- Layer 4

OS:StandardsInformation:Construction,
  {87ec71a4-c65d-4a90-b7d9-665d1942fb8a}, !- Handle
  {1fa99bbd-b6dd-4864-b207-1359d06197dd}, !- Construction Name
  ExteriorWall,                           !- Intended Surface Type
  Mass;                                   !- Standards Construction Type

OS:Construction,
  {abf2da61-87f6-4f82-99f0-d1be7771cd5f}, !- Handle
  ASHRAE 189.1-2009 ExtWall Mass ClimateZone alt-res 6, !- Name
  ,                                       !- Surface Rendering Name
  {d6f65aba-5e0e-4b29-b4fb-16469d27d258}, !- Layer 1
  {98e38902-9592-41ed-8ab6-c28a76a02535}, !- Layer 2
  {e091743c-5796-43aa-9100-70cb522d14ef}, !- Layer 3
  {62f26654-d431-46b6-ae26-dcee9229e7b2}; !- Layer 4

OS:StandardsInformation:Construction,
  {1b3bcd07-ee31-4d80-9293-e6e03eece897}, !- Handle
  {abf2da61-87f6-4f82-99f0-d1be7771cd5f}, !- Construction Name
  ExteriorWall,                           !- Intended Surface Type
  Mass;                                   !- Standards Construction Type

OS:Construction,
  {bb6156e1-c8dc-4fbe-8174-d761da6b3f97}, !- Handle
  ASHRAE 189.1-2009 ExtWall Mass ClimateZone alt-res 7, !- Name
  ,                                       !- Surface Rendering Name
  {d6f65aba-5e0e-4b29-b4fb-16469d27d258}, !- Layer 1
  {98e38902-9592-41ed-8ab6-c28a76a02535}, !- Layer 2
  {e091743c-5796-43aa-9100-70cb522d14ef}, !- Layer 3
  {62f26654-d431-46b6-ae26-dcee9229e7b2}; !- Layer 4

OS:StandardsInformation:Construction,
  {f90d1e83-22a6-46bb-84e7-3611d39310a2}, !- Handle
  {bb6156e1-c8dc-4fbe-8174-d761da6b3f97}, !- Construction Name
  ExteriorWall,                           !- Intended Surface Type
  Mass;                                   !- Standards Construction Type

OS:Construction,
  {20fffa0e-505b-48e2-8637-e2a269c931f1}, !- Handle
  ASHRAE 189.1-2009 ExtWall Mass ClimateZone alt-res 8, !- Name