
OS:Version,
  {1159798c-cf89-41d9-be1f-aeee67695579}, !- Handle
  1.2.3;                                  !- Version Identifier

OS:Construction,
  {aeb8daca-62df-4610-9fb7-8701334483f8}, !- Handle
  ASHRAE 189.1-2009 AtticFloor ClimateZone 1-8, !- Name
  ,                                       !- Surface Rendering Name
  {0c39902d-0793-4b5a-868a-7d8398591020}, !- Layer 1
  {bdcf080c-c596-4015-985f-78f77882a682}, !- Layer 2
  {0c39902d-0793-4b5a-868a-7d8398591020}; !- Layer 3

OS:StandardsInformation:Construction,
  {3ce23d6b-58b3-4a56-ba4b-50f1807f649c}, !- Handle
  {aeb8daca-62df-4610-9fb7-8701334483f8}, !- Construction Name
  AtticFloor,                             !- Intended Surface Type
  WoodFramed;                             !- Standards Construction Type

OS:Material,
  {0c39902d-0793-4b5a-868a-7d8398591020}, !- Handle
  1/2IN Gypsum,                           !- Name
  Smooth,                                 !- Roughness
  0.0127,                                 !- Thickness {m}
  0.16,                                   !- Conductivity {W/m-K}
  784.9,                                  !- Density {kg/m3}
  830.000000000001,                       !- Specific Heat {J/kg-K}
  0.9,                                    !- Thermal Absorptance
  0.92,                                   !- Solar Absorptance
  0.92;                                   !- Visible Absorptance

OS:Material,
  {bdcf080c-c596-4015-985f-78f77882a682}, !- Handle
  AtticFloor Insulation,                  !- Name
  MediumRough,                            !- Roughness
  0.2379,                                 !- Thickness {m}
  0.049,                                  !- Conductivity {W/m-K}
  265,                                    !- Density {kg/m3}
  836.800000000001,                       !- Specific Heat {J/kg-K}
  0.9,                                    !- Thermal Absorptance
  0.7,                                    !- Solar Absorptance
  0.7;                                    !- Visible Absorptance

OS:Construction,
  {276dcb58-4292-4799-a578-2801f6d5b794}, !- Handle
  ASHRAE 189.1-2009 ExtRoof IEAD ClimateZone 1, !- Name
  ,                                       !- Surface Rendering Name
  {6b96d970-480f-4dc0-b5ca-6b47cf3434d2}, !- Layer 1
  {a8b1ca72-524a-4e31-a093-d91c81a37347}, !- Layer 2
  {210ccbdf-8d1a-45e1-889c-3065adef61b4}; !- Layer 3

OS:StandardsInformation:Construction,
  {a147026c-3832-4b65-a4d2-2914252e6a7d}, !- Handle
  {276dcb58-4292-4799-a578-2801f6d5b794}, !- Construction Name
  ExteriorRoof,                           !- Intended Surface Type
  IEAD;                                   !- Standards Construction Type

OS:Material,
  {6b96d970-480f-4dc0-b5ca-6b47cf3434d2}, !- Handle
  Roof Membrane,                          !- Name
  VeryRough,                              !- Roughness
  0.0095,                                 !- Thickness {m}
  0.16,                                   !- Conductivity {W/m-K}
  1121.29,                                !- Density {kg/m3}
  1460,                                   !- Specific Heat {J/kg-K}
  0.9,                                    !- Thermal Absorptance
  0.7,                                    !- Solar Absorptance
  0.7;                                    !- Visible Absorptance

OS:Material,
  {a8b1ca72-524a-4e31-a093-d91c81a37347}, !- Handle
  Roof Insulation [18],                   !- Name
  MediumRough,                            !- Roughness
  0.1693,                                 !- Thickness {m}
  0.049,                                  !- Conductivity {W/m-K}
  265,                                    !- Density {kg/m3}
  836.800000000001,                       !- Specific Heat {J/kg-K}
  0.9,                                    !- Thermal Absorptance
  0.7,                                    !- Solar Absorptance
  0.7;                                    !- Visible Absorptance

OS:Material,
  {210ccbdf-8d1a-45e1-889c-3065adef61b4}, !- Handle
  Metal Decking,                          !- Name
  MediumSmooth,                           !- Roughness
  0.0015,                                 !- Thickness {m}
  45.006,                                 !- Conductivity {W/m-K}
  7680,                                   !- Density {kg/m3}
  418.4,                                  !- Specific Heat {J/kg-K}
  0.9,                                    !- Thermal Absorptance
  0.7,                                    !- Solar Absorptance
  0.3;                                    !- Visible Absorptance

OS:Construction,
  {cacc14c4-7802-4cf7-b27b-e20b2ac5787a}, !- Handle
  ASHRAE 189.1-2009 ExtRoof IEAD ClimateZone 2-5, !- Name
  ,                                       !- Surface Rendering Name
  {6b96d970-480f-4dc0-b5ca-6b47cf3434d2}, !- Layer 1
  {5992b990-4fee-4e8f-aba1-9ad2514840e5}, !- Layer 2
  {210ccbdf-8d1a-45e1-889c-3065adef61b4}; !- Layer 3

OS:StandardsInformation:Construction,
  {0430388e-20c6-46e4-8061-ffe02b6cd919}, !- Handle
  {cacc14c4-7802-4cf7-b27b-e20b2ac5787a}, !- Construction Name
  ExteriorRoof,                           !- Intended Surface Type
  IEAD;                                   !- Standards Construction Type

OS:Material,
  {5992b990-4fee-4e8f-aba1-9ad2514840e5}, !- Handle
  Roof Insulation [21],                   !- Name
  MediumRough,                            !- Roughness
  0.2105,                                 !- Thickness {m}
  0.049,                                  !- Conductivity {W/m-K}
  265,                                    !- Density {kg/m3}
  836.800000000001,                       !- Specific Heat {J/kg-K}
  0.9,                                    !- Thermal Absorptance
  0.7,                                    !- Solar Absorptance
  0.7;                                    !- Visible Absorptance

OS:Construction,
  {ecbc7cea-691d-42d7-8812-d81fd691aea7}, !- Handle
  ASHRAE 189.1-2009 ExtRoof IEAD ClimateZone 6, !- Name
  ,                                       !- Surface Rendering Name
  {6b96d970-480f-4dc0-b5ca-6b47cf3434d2}, !- Layer 1
  {7790991b-bf2f-459a-8a51-254e9ee943ff}, !- Layer 2
  {210ccbdf-8d1a-45e1-889c-3065adef61b4}; !- Layer 3

OS:StandardsInformation:Construction,
  {7d7f69b8-3d75-48fa-9ced-f7508ad90449}, !- Handle
  {ecbc7cea-691d-42d7-8812-d81fd691aea7}, !- Construction Name
  ExteriorRoof,                           !- Intended Surface Type
  IEAD;                                   !- Standards Construction Type

OS:Material,
  {7790991b-bf2f-459a-8a51-254e9ee943ff}, !- Handle
  Roof Insulation [24],                   !- Name
  MediumRough,                            !- Roughness
  0.260100000000001,                      !- Thickness {m}
  0.049,                                  !- Conductivity {W/m-K}
  265,                                    !- Density {kg/m3}
  836.800000000001,                       !- Specific Heat {J/kg-K}
  0.9,                                    !- Thermal Absorptance
  0.7,                                    !- Solar Absorptance
  0.7;                                    !- Visible Absorptance

OS:Construction,
  {ed5d2ef8-4c2c-4ad3-92aa-2173a0cafaee}, !- Handle
  ASHRAE 189.1-2009 ExtRoof IEAD ClimateZone 7-8, !- Name
  ,                                       !- Surface Rendering Name
  {6b96d970-480f-4dc0-b5ca-6b47cf3434d2}, !- Layer 1
  {0c48ecd0-0df6-4d45-b2df-03413ac1c766}, !- Layer 2
  {210ccbdf-8d1a-45e1-889c-3065adef61b4}; !- Layer 3

OS:StandardsInformation:Construction,
  {8641f9ab-a10f-4956-9e66-f62bcde22e15}, !- Handle
  {ed5d2ef8-4c2c-4ad3-92aa-2173a0cafaee}, !- Construction Name
  ExteriorRoof,                           !- Intended Surface Type
  IEAD;                                   !- Standards Construction Type

OS:Material,
  {0c48ecd0-0df6-4d45-b2df-03413ac1c766}, !- Handle
  Roof Insulation [26],                   !- Name
  MediumRough,                            !- Roughness
  0.2941,                                 !- Thickness {m}
  0.049,                                  !- Conductivity {W/m-K}
  265,                                    !- Density {kg/m3}
  836.800000000001,                       !- Specific Heat {J/kg-K}
  0.9,                                    !- Thermal Absorptance
  0.7,                                    !- Solar Absorptance
  0.7;                                    !- Visible Absorptance

OS:Construction,
  {5f6906d7-3641-44d6-af45-42b3f0f5bbad}, !- Handle
  ASHRAE 189.1-2009 ExtRoof Metal ClimateZone 1, !- Name
  ,                                       !- Surface Rendering Name
  {916955c7-62fb-4036-b344-f5c90910554f}, !- Layer 1
  {0c8b1248-41f3-4cda-833b-fa0f868d047d}; !- Layer 2

OS:StandardsInformation:Construction,
  {5947b61b-77df-4f2f-93cb-5002da86936b}, !- Handle
  {5f6906d7-3641-44d6-af45-42b3f0f5bbad}, !- Construction Name
  ExteriorRoof,                           !- Intended Surface Type
  Metal;                                  !- Standards Construction Type

OS:Material,
  {916955c7-62fb-4036-b344-f5c90910554f}, !- Handle
  Metal Roofing,                          !- Name
  MediumSmooth,                           !- Roughness
  0.0015,                                 !- Thickness {m}
  45.006,                                 !- Conductivity {W/m-K}
  7680,                                   !- Density {kg/m3}
  418.4,                                  !- Specific Heat {J/kg-K}
  0.9,                                    !- Thermal Absorptance
  0.3,                                    !- Solar Absorptance
  0.3;                                    !- Visible Absorptance

OS:Material,
  {0c8b1248-41f3-4cda-833b-fa0f868d047d}, !- Handle
  Roof Insulation [19],                   !- Name
  MediumRough,                            !- Roughness
  0.1868,                                 !- Thickness {m}
  0.049,                                  !- Conductivity {W/m-K}
  265,                                    !- Density {kg/m3}
  836.800000000001,                       !- Specific Heat {J/kg-K}
  0.9,                                    !- Thermal Absorptance
  0.7,                                    !- Solar Absorptance
  0.7;                                    !- Visible Absorptance

OS:Construction,
  {1c5947cb-7e17-400d-8130-9dd761b5421d}, !- Handle
  ASHRAE 189.1-2009 ExtRoof Metal ClimateZone 2-5, !- Name
  ,                                       !- Surface Rendering Name
  {916955c7-62fb-4036-b344-f5c90910554f}, !- Layer 1
  {b7bd6184-a111-4185-af90-1272eed2a12e}; !- Layer 2

OS:StandardsInformation:Construction,
  {9ebee2a1-9842-4edd-801f-97ddd19366e5}, !- Handle
  {1c5947cb-7e17-400d-8130-9dd761b5421d}, !- Construction Name
  ExteriorRoof,                           !- Intended Surface Type
  Metal;                                  !- Standards Construction Type

OS:Material,
  {b7bd6184-a111-4185-af90-1272eed2a12e}, !- Handle
  Roof Insulation [22],                   !- Name
  MediumRough,                            !- Roughness
  0.2358,                                 !- Thickness {m}
  0.049,                                  !- Conductivity {W/m-K}
  265,                                    !- Density {kg/m3}
  836.800000000001,                       !- Specific Heat {J/kg-K}
  0.9,                                    !- Thermal Absorptance
  0.7,                                    !- Solar Absorptance
  0.7;                                    !- Visible Absorptance

OS:Construction,
  {c17a47e7-5103-471a-860d-f8014cb45507}, !- Handle
  ASHRAE 189.1-2009 ExtRoof Metal ClimateZone 6, !- Name
  ,                                       !- Surface Rendering Name
  {916955c7-62fb-4036-b344-f5c90910554f}, !- Layer 1
  {d843d016-9249-43f2-9695-0c144af60a11}; !- Layer 2

OS:StandardsInformation:Construction,
  {9f701fcc-9c46-4c2b-aafb-35aa2a606555}, !- Handle
  {c17a47e7-5103-471a-860d-f8014cb45507}, !- Construction Name
  ExteriorRoof,                           !- Intended Surface Type
  Metal;                                  !- Standards Construction Type

OS:Material,
  {d843d016-9249-43f2-9695-0c144af60a11}, !- Handle
  Roof Insulation [25],                   !- Name
  MediumRough,                            !- Roughness
  0.263,                                  !- Thickness {m}
  0.049,                                  !- Conductivity {W/m-K}
  265,                                    !- Density {kg/m3}
  836.800000000001,                       !- Specific Heat {J/kg-K}
  0.9,                                    !- Thermal Absorptance
  0.7,                                    !- Solar Absorptance
  0.7;                                    !- Visible Absorptance

OS:Construction,
  {395dd787-f566-4204-8f81-4fcd199e6b65}, !- Handle
  ASHRAE 189.1-2009 ExtRoof Metal ClimateZone 7-8, !- Name
  ,                                       !- Surface Rendering Name
  {916955c7-62fb-4036-b344-f5c90910554f}, !- Layer 1
  {2195c25a-d3e5-4ae4-9246-7d05937b5ebd}; !- Layer 2

OS:StandardsInformation:Construction,
  {fe5425a4-f63d-42da-8179-42a37546afa1}, !- Handle
  {395dd787-f566-4204-8f81-4fcd199e6b65}, !- Construction Name
  ExteriorRoof,                           !- Intended Surface Type
  Metal;                                  !- Standards Construction Type

OS:Material,
  {2195c25a-d3e5-4ae4-9246-7d05937b5ebd}, !- Handle
  Roof Insulation [27],                   !- Name
  MediumRough,                            !- Roughness
  0.297000000000001,                      !- Thickness {m}
  0.049,                                  !- Conductivity {W/m-K}
  265,                                    !- Density {kg/m3}
  836.800000000001,                       !- Specific Heat {J/kg-K}
  0.9,                                    !- Thermal Absorptance
  0.7,                                    !- Solar Absorptance
  0.7;                                    !- Visible Absorptance

OS:Construction,
  {76fdd8c5-f94e-40e9-8601-f5baaa71a864}, !- Handle
  ASHRAE 189.1-2009 ExtWall Mass ClimateZone 1, !- Name
  ,                                       !- Surface Rendering Name
  {a73e6d41-a15b-4fc6-b873-b98ed670f047}, !- Layer 1
  {17e2d95d-bb66-4198-8a8b-28edec2a29b5}, !- Layer 2
  {2ba466ff-8376-4c87-af2c-008290a689e2}, !- Layer 3
  {0c39902d-0793-4b5a-868a-7d8398591020}; !- Layer 4

OS:StandardsInformation:Construction,
  {84bf3214-187a-4da2-a5e8-3a16c868bf5f}, !- Handle
  {76fdd8c5-f94e-40e9-8601-f5baaa71a864}, !- Construction Name
  ExteriorWall,                           !- Intended Surface Type
  Mass;                                   !- Standards Construction Type

OS:Material,
  {a73e6d41-a15b-4fc6-b873-b98ed670f047}, !- Handle
  1IN Stucco,                             !- Name
  Smooth,                                 !- Roughness
  0.0253,                                 !- Thickness {m}
  0.691799999999999,                      !- Conductivity {W/m-K}
  1858,                                   !- Density {kg/m3}
  836.999999999999,                       !- Specific Heat {J/kg-K}
  0.9,                                    !- Thermal Absorptance
  0.92,                                   !- Solar Absorptance
  0.92;                                   !- Visible Absorptance

OS:Material,
  {17e2d95d-bb66-4198-8a8b-28edec2a29b5}, !- Handle
  8IN Concrete HW,                        !- Name
  MediumRough,                            !- Roughness
  0.2033,                                 !- Thickness {m}
  1.72959999999999,                       !- Conductivity {W/m-K}
  2242.99999999999,                       !- Density {kg/m3}
  836.999999999999,                       !- Specific Heat {J/kg-K}
  0.9,                                    !- Thermal Absorptance
  0.65,                                   !- Solar Absorptance
  0.65;                                   !- Visible Absorptance

OS:Material,
  {2ba466ff-8376-4c87-af2c-008290a689e2}, !- Handle
  Wall Insulation [31],                   !- Name
  MediumRough,                            !- Roughness
  0.0337000000000001,                     !- Thickness {m}
  0.0432,                                 !- Conductivity {W/m-K}
  91,                                     !- Density {kg/m3}
  836.999999999999,                       !- Specific Heat {J/kg-K}
  0.9,                                    !- Thermal Absorptance
  0.5,                                    !- Solar Absorptance
  0.5;                                    !- Visible Absorptance

OS:Construction,
  {fc6c7f05-88a5-442e-a19a-7ef6a09c55b9}, !- Handle
  ASHRAE 189.1-2009 ExtWall Mass ClimateZone 2, !- Name
  ,                                       !- Surface Rendering Name
  {a73e6d41-a15b-4fc6-b873-b98ed670f047}, !- Layer 1
  {17e2d95d-bb66-4198-8a8b-28edec2a29b5}, !- Layer 2
  {bef53dd4-5d18-4f8a-8a52-af71b4fb28fc}, !- Layer 3
  {0c39902d-0793-4b5a-868a-7d8398591020}; !- Layer 4

OS:StandardsInformation:Construction,
  {0fe8571b-285f-444c-b61e-cd0a4291c385}, !- Handle
  {fc6c7f05-88a5-442e-a19a-7ef6a09c55b9}, !- Construction Name
  ExteriorWall,                           !- Intended Surface Type
  Mass;                                   !- Standards Construction Type

OS:Material,
  {bef53dd4-5d18-4f8a-8a52-af71b4fb28fc}, !- Handle
  Wall Insulation [35],                   !- Name
  MediumRough,                            !- Roughness
  0.0452,                                 !- Thickness {m}
  0.0432,                                 !- Conductivity {W/m-K}
  91,                                     !- Density {kg/m3}
  836.999999999999,                       !- Specific Heat {J/kg-K}
  0.9,                                    !- Thermal Absorptance
  0.5,                                    !- Solar Absorptance
  0.5;                                    !- Visible Absorptance

OS:Construction,
  {94e0c5a9-e91c-4084-a9d8-0168eeba7520}, !- Handle
  ASHRAE 189.1-2009 ExtWall Mass ClimateZone 3, !- Name
  ,                                       !- Surface Rendering Name
  {a73e6d41-a15b-4fc6-b873-b98ed670f047}, !- Layer 1
  {17e2d95d-bb66-4198-8a8b-28edec2a29b5}, !- Layer 2
  {d4ea83c4-a328-482c-9fd9-230c304b6e43}, !- Layer 3
  {0c39902d-0793-4b5a-868a-7d8398591020}; !- Layer 4

OS:StandardsInformation:Construction,
  {959f171e-02fe-4b4e-a797-0464b22b8569}, !- Handle
  {94e0c5a9-e91c-4084-a9d8-0168eeba7520}, !- Construction Name
  ExteriorWall,                           !- Intended Surface Type
  Mass;                                   !- Standards Construction Type

OS:Material,
  {d4ea83c4-a328-482c-9fd9-230c304b6e43}, !- Handle
  Wall Insulation [36],                   !- Name
  MediumRough,                            !- Roughness
  0.0565999999999999,                     !- Thickness {m}
  0.0432,                                 !- Conductivity {W/m-K}
  91,                                     !- Density {kg/m3}
  836.999999999999,                       !- Specific Heat {J/kg-K}
  0.9,                                    !- Thermal Absorptance
  0.5,                                    !- Solar Absorptance
  0.5;                                    !- Visible Absorptance

OS:Construction,
  {37191fd6-8167-42a1-8f7b-8fc686413469}, !- Handle
  ASHRAE 189.1-2009 ExtWall Mass ClimateZone 4, !- Name
  ,                                       !- Surface Rendering Name
  {a73e6d41-a15b-4fc6-b873-b98ed670f047}, !- Layer 1
  {17e2d95d-bb66-4198-8a8b-28edec2a29b5}, !- Layer 2
  {89fa38c6-960c-49ba-99cc-64b5c5697413}, !- Layer 3
  {0c39902d-0793-4b5a-868a-7d8398591020}; !- Layer 4

OS:StandardsInformation:Construction,
  {42906457-e2ae-448f-b059-ddd9aa5a2be3}, !- Handle
  {37191fd6-8167-42a1-8f7b-8fc686413469}, !- Construction Name
  ExteriorWall,                           !- Intended Surface Type
  Mass;                                   !- Standards Construction Type

OS:Material,
  {89fa38c6-960c-49ba-99cc-64b5c5697413}, !- Handle
  Wall Insulation [37],                   !- Name
  MediumRough,                            !- Roughness
  0.0680999999999999,                     !- Thickness {m}
  0.0432,                                 !- Conductivity {W/m-K}
  91,                                     !- Density {kg/m3}
  836.999999999999,                       !- Specific Heat {J/kg-K}
  0.9,                                    !- Thermal Absorptance
  0.5,                                    !- Solar Absorptance
  0.5;                                    !- Visible Absorptance

OS:Construction,
  {be565800-2a71-4d27-8f5f-4da6ce3404dc}, !- Handle
  ASHRAE 189.1-2009 ExtWall Mass ClimateZone 5, !- Name
  ,                                       !- Surface Rendering Name
  {a73e6d41-a15b-4fc6-b873-b98ed670f047}, !- Layer 1
  {17e2d95d-bb66-4198-8a8b-28edec2a29b5}, !- Layer 2
  {b79e2a14-651d-4748-a1f2-922abd4a0170}, !- Layer 3
  {0c39902d-0793-4b5a-868a-7d8398591020}; !- Layer 4

OS:StandardsInformation:Construction,
  {d7e4b6cd-a6aa-440a-af73-ee2ea8e002a3}, !- Handle
  {be565800-2a71-4d27-8f5f-4da6ce3404dc}, !- Construction Name
  ExteriorWall,                           !- Intended Surface Type
  Mass;                                   !- Standards Construction Type

OS:Material,
  {b79e2a14-651d-4748-a1f2-922abd4a0170}, !- Handle
  Wall Insulation [40],                   !- Name
  MediumRough,                            !- Roughness
  0.0793999999999999,                     !- Thickness {m}
  0.0432,                                 !- Conductivity {W/m-K}
  91,                                     !- Density {kg/m3}
  836.999999999999,                       !- Specific Heat {J/kg-K}
  0.9,                                    !- Thermal Absorptance
  0.5,                                    !- Solar Absorptance
  0.5;                                    !- Visible Absorptance

OS:Construction,
  {ddc317ea-dfbc-443c-8919-6649c0a7dbdc}, !- Handle
  ASHRAE 189.1-2009 ExtWall Mass ClimateZone 6, !- Name
  ,                                       !- Surface Rendering Name
  {a73e6d41-a15b-4fc6-b873-b98ed670f047}, !- Layer 1
  {17e2d95d-bb66-4198-8a8b-28edec2a29b5}, !- Layer 2
  {081b0b0a-60cd-47b2-936b-2e45c016f744}, !- Layer 3
  {0c39902d-0793-4b5a-868a-7d8398591020}; !- Layer 4

OS:StandardsInformation:Construction,
  {86cc824b-fd0c-46c4-b3ea-08420a372417}, !- Handle
  {ddc317ea-dfbc-443c-8919-6649c0a7dbdc}, !- Construction Name
  ExteriorWall,                           !- Intended Surface Type
  Mass;                                   !- Standards Construction Type

OS:Material,
  {081b0b0a-60cd-47b2-936b-2e45c016f744}, !- Handle
  Wall Insulation [42],                   !- Name
  MediumRough,                            !- Roughness
  0.0913999999999999,                     !- Thickness {m}
  0.0432,                                 !- Conductivity {W/m-K}
  91,                                     !- Density {kg/m3}
  836.999999999999,                       !- Specific Heat {J/kg-K}
  0.9,                                    !- Thermal Absorptance
  0.5,                                    !- Solar Absorptance
  0.5;                                    !- Visible Absorptance

OS:Construction,
  {83e87cb1-eaf2-4d95-9108-ecd60e9779c3}, !- Handle
  ASHRAE 189.1-2009 ExtWall Mass ClimateZone 7-8, !- Name
  ,                                       !- Surface Rendering Name
  {a73e6d41-a15b-4fc6-b873-b98ed670f047}, !- Layer 1
  {17e2d95d-bb66-4198-8a8b-28edec2a29b5}, !- Layer 2
  {bc40fde4-54fc-4af2-bddb-4abb65813a76}, !- Layer 3
  {0c39902d-0793-4b5a-868a-7d8398591020}; !- Layer 4

OS:StandardsInformation:Construction,
  {4aed713a-6219-4686-bc18-63083d4896de}, !- Handle
  {83e87cb1-eaf2-4d95-9108-ecd60e9779c3}, !- Construction Name
  ExteriorWall,                           !- Intended Surface Type
  Mass;                                   !- Standards Construction Type

OS:Material,
  {bc40fde4-54fc-4af2-bddb-4abb65813a76}, !- Handle
  Wall Insulation [44],                   !- Name
  MediumRough,                            !- Roughness
  0.1104,                                 !- Thickness {m}
  0.0432,                                 !- Conductivity {W/m-K}
  91,                                     !- Density {kg/m3}
  836.999999999999,                       !- Specific Heat {J/kg-K}
  0.9,                                    !- Thermal Absorptance
  0.5,                                    !- Solar Absorptance
  0.5;                                    !- Visible Absorptance

OS:Construction,
  {f13c3f67-8dee-4b21-99d5-13af5c7f584c}, !- Handle
  ASHRAE 189.1-2009 ExtWall Mass ClimateZone alt-res 1, !- Name
  ,                                       !- Surface Rendering Name
  {a73e6d41-a15b-4fc6-b873-b98ed670f047}, !- Layer 1
  {17e2d95d-bb66-4198-8a8b-28edec2a29b5}, !- Layer 2
  {bef53dd4-5d18-4f8a-8a52-af71b4fb28fc}, !- Layer 3
  {0c39902d-0793-4b5a-868a-7d8398591020}; !- Layer 4

OS:StandardsInformation:Construction,
  {91878825-697d-45d2-90aa-d0c5d00eff3b}, !- Handle
  {f13c3f67-8dee-4b21-99d5-13af5c7f584c}, !- Construction Name
  ExteriorWall,                           !- Intended Surface Type
  Mass;                                   !- Standards Construction Type

OS:Construction,
  {bb10cb70-706d-48f1-b9bf-4bef3082197c}, !- Handle
  ASHRAE 189.1-2009 ExtWall Mass ClimateZone alt-res 2, !- Name
  ,                                       !- Surface Rendering Name
  {a73e6d41-a15b-4fc6-b873-b98ed670f047}, !- Layer 1
  {17e2d95d-bb66-4198-8a8b-28edec2a29b5}, !- Layer 2
  {d4ea83c4-a328-482c-9fd9-230c304b6e43}, !- Layer 3
  {0c39902d-0793-4b5a-868a-7d8398591020}; !- Layer 4

OS:StandardsInformation:Construction,
  {6b22579e-dac3-47c1-abf2-d38a03eed41f}, !- Handle
  {bb10cb70-706d-48f1-b9bf-4bef3082197c}, !- Construction Name
  ExteriorWall,                           !- Intended Surface Type
  Mass;                                   !- Standards Construction Type

OS:Construction,
  {0039a7ea-e666-4835-b882-a2469a100735}, !- Handle
  ASHRAE 189.1-2009 ExtWall Mass ClimateZone alt-res 3, !- Name
  ,                                       !- Surface Rendering Name
  {a73e6d41-a15b-4fc6-b873-b98ed670f047}, !- Layer 1
  {17e2d95d-bb66-4198-8a8b-28edec2a29b5}, !- Layer 2
  {89fa38c6-960c-49ba-99cc-64b5c5697413}, !- Layer 3
  {0c39902d-0793-4b5a-868a-7d8398591020}; !- Layer 4

OS:StandardsInformation:Construction,
  {56e8303c-0e3e-4bb3-82a0-27f06fa1289a}, !- Handle
  {0039a7ea-e666-4835-b882-a2469a100735}, !- Construction Name
  ExteriorWall,                           !- Intended Surface Type
  Mass;                                   !- Standards Construction Type

OS:Construction,
  {087efa53-8f1b-4bab-95b8-c410d5ba08fe}, !- Handle
  ASHRAE 189.1-2009 ExtWall Mass ClimateZone alt-res 4, !- Name
  ,                                       !- Surface Rendering Name
  {a73e6d41-a15b-4fc6-b873-b98ed670f047}, !- Layer 1
  {17e2d95d-bb66-4198-8a8b-28edec2a29b5}, !- Layer 2
  {b79e2a14-651d-4748-a1f2-922abd4a0170}, !- Layer 3
  {0c39902d-0793-4b5a-868a-7d8398591020}; !- Layer 4

OS:StandardsInformation:Construction,
  {7aa0194a-2f5b-475a-863e-8f4398d1e43d}, !- Handle
  {087efa53-8f1b-4bab-95b8-c410d5ba08fe}, !- Construction Name
  ExteriorWall,                           !- Intended Surface Type
  Mass;                                   !- Standards Construction Type

OS:Construction,
  {5b2d8e30-9de3-4e58-a7f1-c50e72a6032e}, !- Handle
  ASHRAE 189.1-2009 ExtWall Mass ClimateZone alt-res 5, !- Name
  ,                                       !- Surface Rendering Name
  {a73e6d41-a15b-4fc6-b873-b98ed670f047}, !- Layer 1
  {17e2d95d-bb66-4198-8a8b-28edec2a29b5}, !- Layer 2
  {081b0b0a-60cd-47b2-936b-2e45c016f744}, !- Layer 3
  {0c39902d-0793-4b5a-868a-7d8398591020}; !- Layer 4

OS:StandardsInformation:Construction,
  {fff54e18-2678-4ee8-a1f3-9eea196ca898}, !- Handle
  {5b2d8e30-9de3-4e58-a7f1-c50e72a6032e}, !- Construction Name
  ExteriorWall,                           !- Intended Surface Type
  Mass;                                   !- Standards Construction Type

OS:Construction,
  {62651a5f-3acb-4b2c-8fc4-4b17e459563b}, !- Handle
  ASHRAE 189.1-2009 ExtWall Mass ClimateZone alt-res 6, !- Name
  ,                                       !- Surface Rendering Name
  {a73e6d41-a15b-4fc6-b873-b98ed670f047}, !- Layer 1
  {17e2d95d-bb66-4198-8a8b-28edec2a29b5}, !- Layer 2
  {bc40fde4-54fc-4af2-bddb-4abb65813a76}, !- Layer 3
  {0c39902d-0793-4b5a-868a-7d8398591020}; !- Layer 4

OS:StandardsInformation:Construction,
  {34e859d6-ddac-4aaa-8e03-46fa0ce35ce0}, !- Handle
  {62651a5f-3acb-4b2c-8fc4-4b17e459563b}, !- Construction Name
  ExteriorWall,                           !- Intended Surface Type
  Mass;                                   !- Standards Construction Type

OS:Construction,
  {9539f7a9-1818-45c4-80df-6c77b3296d6a}, !- Handle
  ASHRAE 189.1-2009 ExtWall Mass ClimateZone alt-res 7, !- Name
  ,                                       !- Surface Rendering Name
  {a73e6d41-a15b-4fc6-b873-b98ed670f047}, !- Layer 1
  {17e2d95d-bb66-4198-8a8b-28edec2a29b5}, !- Layer 2
  {bc40fde4-54fc-4af2-bddb-4abb65813a76}, !- Layer 3
  {0c39902d-0793-4b5a-868a-7d8398591020}; !- Layer 4

OS:StandardsInformation:Construction,
  {8c456e09-ac67-44c9-82b0-a9070fe9b6e2}, !- Handle
  {9539f7a9-1818-45c4-80df-6c77b3296d6a}, !- Construction Name
  ExteriorWall,                           !- Intended Surface Type
  Mass;                                   !- Standards Construction Type

OS:Construction,
  {3b2ec79a-ed66-419c-aae6-e1071290311c}, !- Handle
  ASHRAE 189.1-2009 ExtWall Mass ClimateZone alt-res 8, !- Name