
OS:Version,
  {5ea3174e-2cc7-4c37-9e0c-dc3dfb20e047}, !- Handle
  1.4.0;                                  !- Version Identifier

OS:Construction,
  {8b4acf9a-ec44-4330-bd9d-2474f2897cc9}, !- Handle
  ASHRAE 189.1-2009 AtticFloor ClimateZone 1-8, !- Name
  ,                                       !- Surface Rendering Name
  {dd1d8791-ff32-4743-b2a0-8e525bed6dad}, !- Layer 1
  {5eab0c42-db36-4195-beec-9f1e63f6328a}, !- Layer 2
  {dd1d8791-ff32-4743-b2a0-8e525bed6dad}; !- Layer 3

OS:StandardsInformation:Construction,
  {e4138ebf-7d42-4b18-b588-8a8442b50786}, !- Handle
  {8b4acf9a-ec44-4330-bd9d-2474f2897cc9}, !- Construction Name
  AtticFloor,                             !- Intended Surface Type
  WoodFramed;                             !- Standards Construction Type

OS:Material,
  {dd1d8791-ff32-4743-b2a0-8e525bed6dad}, !- Handle
  1/2IN Gypsum,                           !- Name
  Smooth,                                 !- Roughness
  0.0127,                                 !- Thickness {m}
  0.16,                                   !- Conductivity {W/m-K}
  784.9,                                  !- Density {kg/m3}
  830.000000000001,                       !- Specific Heat {J/kg-K}
  0.9,                                    !- Thermal Absorptance
  0.4,                                    !- Solar Absorptance
  0.4;                                    !- Visible Absorptance

OS:Material,
  {5eab0c42-db36-4195-beec-9f1e63f6328a}, !- Handle
  AtticFloor Insulation,                  !- Name
  MediumRough,                            !- Roughness
  0.2379,                                 !- Thickness {m}
  0.049,                                  !- Conductivity {W/m-K}
  265,                                    !- Density {kg/m3}
  836.800000000001,                       !- Specific Heat {J/kg-K}
  0.9,                                    !- Thermal Absorptance
  0.7,                                    !- Solar Absorptance
  0.7;                                    !- Visible Absorptance

OS:Construction,
  {b3cb347a-54c2-4c94-a199-cde24f92fb9b}, !- Handle
  ASHRAE 189.1-2009 ExtRoof IEAD ClimateZone 1, !- Name
  ,                                       !- Surface Rendering Name
  {f37fcd26-ad69-46f1-ba2b-a2f1a7b1d5c0}, !- Layer 1
  {64a18276-988b-4a2b-8154-4f655d3d2a46}, !- Layer 2
  {ed0b7798-553c-4093-a19a-6cd566611595}; !- Layer 3

OS:StandardsInformation:Construction,
  {c5420fa3-d6f8-4422-beff-6c1fb9dc9e22}, !- Handle
  {b3cb347a-54c2-4c94-a199-cde24f92fb9b}, !- Construction Name
  ExteriorRoof,                           !- Intended Surface Type
  IEAD;                                   !- Standards Construction Type

OS:Material,
  {f37fcd26-ad69-46f1-ba2b-a2f1a7b1d5c0}, !- Handle
  Roof Membrane,                          !- Name
  VeryRough,                              !- Roughness
  0.0095,                                 !- Thickness {m}
  0.16,                                   !- Conductivity {W/m-K}
  1121.29,                                !- Density {kg/m3}
  1460,                                   !- Specific Heat {J/kg-K}
  0.9,                                    !- Thermal Absorptance
  0.7,                                    !- Solar Absorptance
  0.7;                                    !- Visible Absorptance

OS:Material,
  {64a18276-988b-4a2b-8154-4f655d3d2a46}, !- Handle
  Roof Insulation [18],                   !- Name
  MediumRough,                            !- Roughness
  0.1693,                                 !- Thickness {m}
  0.049,                                  !- Conductivity {W/m-K}
  265,                                    !- Density {kg/m3}
  836.800000000001,                       !- Specific Heat {J/kg-K}
  0.9,                                    !- Thermal Absorptance
  0.7,                                    !- Solar Absorptance
  0.7;                                    !- Visible Absorptance

OS:Material,
  {ed0b7798-553c-4093-a19a-6cd566611595}, !- Handle
  Metal Decking,                          !- Name
  MediumSmooth,                           !- Roughness
  0.0015,                                 !- Thickness {m}
  45.006,                                 !- Conductivity {W/m-K}
  7680,                                   !- Density {kg/m3}
  418.4,                                  !- Specific Heat {J/kg-K}
  0.9,                                    !- Thermal Absorptance
  0.6,                                    !- Solar Absorptance
  0.6;                                    !- Visible Absorptance

OS:Construction,
  {b265860b-df84-45e9-9011-66f4bbe34728}, !- Handle
  ASHRAE 189.1-2009 ExtRoof IEAD ClimateZone 2-5, !- Name
  ,                                       !- Surface Rendering Name
  {f37fcd26-ad69-46f1-ba2b-a2f1a7b1d5c0}, !- Layer 1
  {8aa8ea73-8dd9-4698-ae19-854f2c182a90}, !- Layer 2
  {ed0b7798-553c-4093-a19a-6cd566611595}; !- Layer 3

OS:StandardsInformation:Construction,
  {d21cb567-24fc-470a-a4ce-8d7f8fb48aa7}, !- Handle
  {b265860b-df84-45e9-9011-66f4bbe34728}, !- Construction Name
  ExteriorRoof,                           !- Intended Surface Type
  IEAD;                                   !- Standards Construction Type

OS:Material,
  {8aa8ea73-8dd9-4698-ae19-854f2c182a90}, !- Handle
  Roof Insulation [21],                   !- Name
  MediumRough,                            !- Roughness
  0.2105,                                 !- Thickness {m}
  0.049,                                  !- Conductivity {W/m-K}
  265,                                    !- Density {kg/m3}
  836.800000000001,                       !- Specific Heat {J/kg-K}
  0.9,                                    !- Thermal Absorptance
  0.7,                                    !- Solar Absorptance
  0.7;                                    !- Visible Absorptance

OS:Construction,
  {b78010e9-16af-47f5-b988-8ef5cca6859b}, !- Handle
  ASHRAE 189.1-2009 ExtRoof IEAD ClimateZone 6, !- Name
  ,                                       !- Surface Rendering Name
  {f37fcd26-ad69-46f1-ba2b-a2f1a7b1d5c0}, !- Layer 1
  {71f8cfbf-e249-4460-a6cf-5ded58a44816}, !- Layer 2
  {ed0b7798-553c-4093-a19a-6cd566611595}; !- Layer 3

OS:StandardsInformation:Construction,
  {858706df-8dd9-4a6c-a126-87c22b6c8afe}, !- Handle
  {b78010e9-16af-47f5-b988-8ef5cca6859b}, !- Construction Name
  ExteriorRoof,                           !- Intended Surface Type
  IEAD;                                   !- Standards Construction Type

OS:Material,
  {71f8cfbf-e249-4460-a6cf-5ded58a44816}, !- Handle
  Roof Insulation [24],                   !- Name
  MediumRough,                            !- Roughness
  0.260100000000001,                      !- Thickness {m}
  0.049,                                  !- Conductivity {W/m-K}
  265,                                    !- Density {kg/m3}
  836.800000000001,                       !- Specific Heat {J/kg-K}
  0.9,                                    !- Thermal Absorptance
  0.7,                                    !- Solar Absorptance
  0.7;                                    !- Visible Absorptance

OS:Construction,
  {09096012-6a95-49d7-bdc6-2864855f1024}, !- Handle
  ASHRAE 189.1-2009 ExtRoof IEAD ClimateZone 7-8, !- Name
  ,                                       !- Surface Rendering Name
  {f37fcd26-ad69-46f1-ba2b-a2f1a7b1d5c0}, !- Layer 1
  {88788462-75f1-452f-8dd4-a89e1662e9ac}, !- Layer 2
  {ed0b7798-553c-4093-a19a-6cd566611595}; !- Layer 3

OS:StandardsInformation:Construction,
  {8484ad43-6523-483e-a380-ca6f9dc5cf5c}, !- Handle
  {09096012-6a95-49d7-bdc6-2864855f1024}, !- Construction Name
  ExteriorRoof,                           !- Intended Surface Type
  IEAD;                                   !- Standards Construction Type

OS:Material,
  {88788462-75f1-452f-8dd4-a89e1662e9ac}, !- Handle
  Roof Insulation [26],                   !- Name
  MediumRough,                            !- Roughness
  0.2941,                                 !- Thickness {m}
  0.049,                                  !- Conductivity {W/m-K}
  265,                                    !- Density {kg/m3}
  836.800000000001,                       !- Specific Heat {J/kg-K}
  0.9,                                    !- Thermal Absorptance
  0.7,                                    !- Solar Absorptance
  0.7;                                    !- Visible Absorptance

OS:Construction,
  {2e5b167d-937b-4af8-99c1-7a1265ad65da}, !- Handle
  ASHRAE 189.1-2009 ExtRoof Metal ClimateZone 1, !- Name
  ,                                       !- Surface Rendering Name
  {cbd65692-dbf6-40f3-8d1a-fa44ba34f2f1}, !- Layer 1
  {9c428ce1-a1d0-43f9-acb8-6f65df561fdd}, !- Layer 2
  {ed0b7798-553c-4093-a19a-6cd566611595}; !- Layer 3

OS:StandardsInformation:Construction,
  {5efa3fa6-31cf-4765-b882-ee6349ce6782}, !- Handle
  {2e5b167d-937b-4af8-99c1-7a1265ad65da}, !- Construction Name
  ExteriorRoof,                           !- Intended Surface Type
  Metal;                                  !- Standards Construction Type

OS:Material,
  {cbd65692-dbf6-40f3-8d1a-fa44ba34f2f1}, !- Handle
  Metal Roofing,                          !- Name
  MediumSmooth,                           !- Roughness
  0.0015,                                 !- Thickness {m}
  45.006,                                 !- Conductivity {W/m-K}
  7680,                                   !- Density {kg/m3}
  418.4,                                  !- Specific Heat {J/kg-K}
  0.9,                                    !- Thermal Absorptance
  0.6,                                    !- Solar Absorptance
  0.6;                                    !- Visible Absorptance

OS:Material,
  {9c428ce1-a1d0-43f9-acb8-6f65df561fdd}, !- Handle
  Roof Insulation [19],                   !- Name
  MediumRough,                            !- Roughness
  0.1868,                                 !- Thickness {m}
  0.049,                                  !- Conductivity {W/m-K}
  265,                                    !- Density {kg/m3}
  836.800000000001,                       !- Specific Heat {J/kg-K}
  0.9,                                    !- Thermal Absorptance
  0.7,                                    !- Solar Absorptance
  0.7;                                    !- Visible Absorptance

OS:Construction,
  {e6449365-33e1-474a-9804-9114d46cd33e}, !- Handle
  ASHRAE 189.1-2009 ExtRoof Metal ClimateZone 2-5, !- Name
  ,                                       !- Surface Rendering Name
  {cbd65692-dbf6-40f3-8d1a-fa44ba34f2f1}, !- Layer 1
  {5bf11ac9-ec4e-4346-b086-3bd678a5d340}, !- Layer 2
  {ed0b7798-553c-4093-a19a-6cd566611595}; !- Layer 3

OS:StandardsInformation:Construction,
  {ca617b8f-6e5c-4c34-923d-3c673fc6916d}, !- Handle
  {e6449365-33e1-474a-9804-9114d46cd33e}, !- Construction Name
  ExteriorRoof,                           !- Intended Surface Type
  Metal;                                  !- Standards Construction Type

OS:Material,
  {5bf11ac9-ec4e-4346-b086-3bd678a5d340}, !- Handle
  Roof Insulation [22],                   !- Name
  MediumRough,                            !- Roughness
  0.2358,                                 !- Thickness {m}
  0.049,                                  !- Conductivity {W/m-K}
  265,                                    !- Density {kg/m3}
  836.800000000001,                       !- Specific Heat {J/kg-K}
  0.9,                                    !- Thermal Absorptance
  0.7,                                    !- Solar Absorptance
  0.7;                                    !- Visible Absorptance

OS:Construction,
  {40afe651-9dbd-46e7-aab7-d9be3c01467b}, !- Handle
  ASHRAE 189.1-2009 ExtRoof Metal ClimateZone 6, !- Name
  ,                                       !- Surface Rendering Name
  {cbd65692-dbf6-40f3-8d1a-fa44ba34f2f1}, !- Layer 1
  {a104ea17-369d-47ce-b012-00605c6a2ab9}, !- Layer 2
  {ed0b7798-553c-4093-a19a-6cd566611595}; !- Layer 3

OS:StandardsInformation:Construction,
  {1c79970f-0c96-4c3e-a64f-389ba57b2449}, !- Handle
  {40afe651-9dbd-46e7-aab7-d9be3c01467b}, !- Construction Name
  ExteriorRoof,                           !- Intended Surface Type
  Metal;                                  !- Standards Construction Type

OS:Material,
  {a104ea17-369d-47ce-b012-00605c6a2ab9}, !- Handle
  Roof Insulation [25],                   !- Name
  MediumRough,                            !- Roughness
  0.263,                                  !- Thickness {m}
  0.049,                                  !- Conductivity {W/m-K}
  265,                                    !- Density {kg/m3}
  836.800000000001,                       !- Specific Heat {J/kg-K}
  0.9,                                    !- Thermal Absorptance
  0.7,                                    !- Solar Absorptance
  0.7;                                    !- Visible Absorptance

OS:Construction,
  {f31ca136-3aad-4e3a-bb9a-69860c560f86}, !- Handle
  ASHRAE 189.1-2009 ExtRoof Metal ClimateZone 7-8, !- Name
  ,                                       !- Surface Rendering Name
  {cbd65692-dbf6-40f3-8d1a-fa44ba34f2f1}, !- Layer 1
  {973775c2-d44f-4e66-90aa-bbfcd3067c2e}, !- Layer 2
  {ed0b7798-553c-4093-a19a-6cd566611595}; !- Layer 3

OS:StandardsInformation:Construction,
  {4366d492-2101-41e8-aac8-5d0408a61cc9}, !- Handle
  {f31ca136-3aad-4e3a-bb9a-69860c560f86}, !- Construction Name
  ExteriorRoof,                           !- Intended Surface Type
  Metal;                                  !- Standards Construction Type

OS:Material,
  {973775c2-d44f-4e66-90aa-bbfcd3067c2e}, !- Handle
  Roof Insulation [27],                   !- Name
  MediumRough,                            !- Roughness
  0.297000000000001,                      !- Thickness {m}
  0.049,                                  !- Conductivity {W/m-K}
  265,                                    !- Density {kg/m3}
  836.800000000001,                       !- Specific Heat {J/kg-K}
  0.9,                                    !- Thermal Absorptance
  0.7,                                    !- Solar Absorptance
  0.7;                                    !- Visible Absorptance

OS:Construction,
  {8cc0024c-e31d-4bf2-a117-18b21cacba6e}, !- Handle
  ASHRAE 189.1-2009 ExtWall Mass ClimateZone 1, !- Name
  ,                                       !- Surface Rendering Name
  {9590abd1-494e-485d-bc17-55dd179347fd}, !- Layer 1
  {23d97168-fd68-42d5-9f2a-d4ca52eaa64b}, !- Layer 2
  {c16c645b-bf82-4534-9cd7-bd9ece9730cc}, !- Layer 3
  {dd1d8791-ff32-4743-b2a0-8e525bed6dad}; !- Layer 4

OS:StandardsInformation:Construction,
  {f6624d4b-27d5-48a6-aee0-dff833eabed6}, !- Handle
  {8cc0024c-e31d-4bf2-a117-18b21cacba6e}, !- Construction Name
  ExteriorWall,                           !- Intended Surface Type
  Mass;                                   !- Standards Construction Type

OS:Material,
  {9590abd1-494e-485d-bc17-55dd179347fd}, !- Handle
  1IN Stucco,                             !- Name
  Smooth,                                 !- Roughness
  0.0253,                                 !- Thickness {m}
  0.691799999999999,                      !- Conductivity {W/m-K}
  1858,                                   !- Density {kg/m3}
  836.999999999999,                       !- Specific Heat {J/kg-K}
  0.9,                                    !- Thermal Absorptance
  0.92,                                   !- Solar Absorptance
  0.92;                                   !- Visible Absorptance

OS:Material,
  {23d97168-fd68-42d5-9f2a-d4ca52eaa64b}, !- Handle
  8IN Concrete HW,                        !- Name
  MediumRough,                            !- Roughness
  0.2033,                                 !- Thickness {m}
  1.72959999999999,                       !- Conductivity {W/m-K}
  2242.99999999999,                       !- Density {kg/m3}
  836.999999999999,                       !- Specific Heat {J/kg-K}
  0.9,                                    !- Thermal Absorptance
  0.65,                                   !- Solar Absorptance
  0.65;                                   !- Visible Absorptance

OS:Material,
  {c16c645b-bf82-4534-9cd7-bd9ece9730cc}, !- Handle
  Wall Insulation [31],                   !- Name
  MediumRough,                            !- Roughness
  0.0337000000000001,                     !- Thickness {m}
  0.0432,                                 !- Conductivity {W/m-K}
  91,                                     !- Density {kg/m3}
  836.999999999999,                       !- Specific Heat {J/kg-K}
  0.9,                                    !- Thermal Absorptance
  0.5,                                    !- Solar Absorptance
  0.5;                                    !- Visible Absorptance

OS:Construction,
  {426e09f5-f6be-4eb4-affe-b0a03b3b6492}, !- Handle
  ASHRAE 189.1-2009 ExtWall Mass ClimateZone 2, !- Name
  ,                                       !- Surface Rendering Name
  {9590abd1-494e-485d-bc17-55dd179347fd}, !- Layer 1
  {23d97168-fd68-42d5-9f2a-d4ca52eaa64b}, !- Layer 2
  {76edc616-4961-44df-aca5-fc314096daa3}, !- Layer 3
  {dd1d8791-ff32-4743-b2a0-8e525bed6dad}; !- Layer 4

OS:StandardsInformation:Construction,
  {21a02c31-407d-41ae-b919-7a2ed0ead40e}, !- Handle
  {426e09f5-f6be-4eb4-affe-b0a03b3b6492}, !- Construction Name
  ExteriorWall,                           !- Intended Surface Type
  Mass;                                   !- Standards Construction Type

OS:Material,
  {76edc616-4961-44df-aca5-fc314096daa3}, !- Handle
  Wall Insulation [35],                   !- Name
  MediumRough,                            !- Roughness
  0.0452,                                 !- Thickness {m}
  0.0432,                                 !- Conductivity {W/m-K}
  91,                                     !- Density {kg/m3}
  836.999999999999,                       !- Specific Heat {J/kg-K}
  0.9,                                    !- Thermal Absorptance
  0.5,                                    !- Solar Absorptance
  0.5;                                    !- Visible Absorptance

OS:Construction,
  {fe995a0b-e399-4919-ab22-60e8dd02d077}, !- Handle
  ASHRAE 189.1-2009 ExtWall Mass ClimateZone 3, !- Name
  ,                                       !- Surface Rendering Name
  {9590abd1-494e-485d-bc17-55dd179347fd}, !- Layer 1
  {23d97168-fd68-42d5-9f2a-d4ca52eaa64b}, !- Layer 2
  {8f7fa622-adcd-4aa0-a9c5-0d464f96b2c7}, !- Layer 3
  {dd1d8791-ff32-4743-b2a0-8e525bed6dad}; !- Layer 4

OS:StandardsInformation:Construction,
  {7a6dd4a6-fe46-4fd5-97dc-aeaa1344cb07}, !- Handle
  {fe995a0b-e399-4919-ab22-60e8dd02d077}, !- Construction Name
  ExteriorWall,                           !- Intended Surface Type
  Mass;                                   !- Standards Construction Type

OS:Material,
  {8f7fa622-adcd-4aa0-a9c5-0d464f96b2c7}, !- Handle
  Wall Insulation [36],                   !- Name
  MediumRough,                            !- Roughness
  0.0565999999999999,                     !- Thickness {m}
  0.0432,                                 !- Conductivity {W/m-K}
  91,                                     !- Density {kg/m3}
  836.999999999999,                       !- Specific Heat {J/kg-K}
  0.9,                                    !- Thermal Absorptance
  0.5,                                    !- Solar Absorptance
  0.5;                                    !- Visible Absorptance

OS:Construction,
  {2a9a39a8-c844-4ebe-aba5-dd8b23e42448}, !- Handle
  ASHRAE 189.1-2009 ExtWall Mass ClimateZone 4, !- Name
  ,                                       !- Surface Rendering Name
  {9590abd1-494e-485d-bc17-55dd179347fd}, !- Layer 1
  {23d97168-fd68-42d5-9f2a-d4ca52eaa64b}, !- Layer 2
  {e53af23a-0eb7-4c0f-b70a-54d2051e16cd}, !- Layer 3
  {dd1d8791-ff32-4743-b2a0-8e525bed6dad}; !- Layer 4

OS:StandardsInformation:Construction,
  {d2223ebe-397b-4151-9a8c-1bf7a27f3d57}, !- Handle
  {2a9a39a8-c844-4ebe-aba5-dd8b23e42448}, !- Construction Name
  ExteriorWall,                           !- Intended Surface Type
  Mass;                                   !- Standards Construction Type

OS:Material,
  {e53af23a-0eb7-4c0f-b70a-54d2051e16cd}, !- Handle
  Wall Insulation [37],                   !- Name
  MediumRough,                            !- Roughness
  0.0680999999999999,                     !- Thickness {m}
  0.0432,                                 !- Conductivity {W/m-K}
  91,                                     !- Density {kg/m3}
  836.999999999999,                       !- Specific Heat {J/kg-K}
  0.9,                                    !- Thermal Absorptance
  0.5,                                    !- Solar Absorptance
  0.5;                                    !- Visible Absorptance

OS:Construction,
  {b40dea89-1cbe-47fe-98e7-33cd4d7fa8d1}, !- Handle
  ASHRAE 189.1-2009 ExtWall Mass ClimateZone 5, !- Name
  ,                                       !- Surface Rendering Name
  {9590abd1-494e-485d-bc17-55dd179347fd}, !- Layer 1
  {23d97168-fd68-42d5-9f2a-d4ca52eaa64b}, !- Layer 2
  {626c2654-a57e-45f9-a025-15a9fc5a4414}, !- Layer 3
  {dd1d8791-ff32-4743-b2a0-8e525bed6dad}; !- Layer 4

OS:StandardsInformation:Construction,
  {addf891c-c9a5-4730-94e1-707e8778bfe7}, !- Handle
  {b40dea89-1cbe-47fe-98e7-33cd4d7fa8d1}, !- Construction Name
  ExteriorWall,                           !- Intended Surface Type
  Mass;                                   !- Standards Construction Type

OS:Material,
  {626c2654-a57e-45f9-a025-15a9fc5a4414}, !- Handle
  Wall Insulation [40],                   !- Name
  MediumRough,                            !- Roughness
  0.0793999999999999,                     !- Thickness {m}
  0.0432,                                 !- Conductivity {W/m-K}
  91,                                     !- Density {kg/m3}
  836.999999999999,                       !- Specific Heat {J/kg-K}
  0.9,                                    !- Thermal Absorptance
  0.5,                                    !- Solar Absorptance
  0.5;                                    !- Visible Absorptance

OS:Construction,
  {4e2bb5a0-986d-41cf-961b-c35eb054772f}, !- Handle
  ASHRAE 189.1-2009 ExtWall Mass ClimateZone 6, !- Name
  ,                                       !- Surface Rendering Name
  {9590abd1-494e-485d-bc17-55dd179347fd}, !- Layer 1
  {23d97168-fd68-42d5-9f2a-d4ca52eaa64b}, !- Layer 2
  {f2ae7b29-8471-4685-a1fc-34614be347a3}, !- Layer 3
  {dd1d8791-ff32-4743-b2a0-8e525bed6dad}; !- Layer 4

OS:StandardsInformation:Construction,
  {7cd57c18-1408-41d6-b5f2-c453fab94ce0}, !- Handle
  {4e2bb5a0-986d-41cf-961b-c35eb054772f}, !- Construction Name
  ExteriorWall,                           !- Intended Surface Type
  Mass;                                   !- Standards Construction Type

OS:Material,
  {f2ae7b29-8471-4685-a1fc-34614be347a3}, !- Handle
  Wall Insulation [42],                   !- Name
  MediumRough,                            !- Roughness
  0.0913999999999999,                     !- Thickness {m}
  0.0432,                                 !- Conductivity {W/m-K}
  91,                                     !- Density {kg/m3}
  836.999999999999,                       !- Specific Heat {J/kg-K}
  0.9,                                    !- Thermal Absorptance
  0.5,                                    !- Solar Absorptance
  0.5;                                    !- Visible Absorptance

OS:Construction,
  {cc5ff56d-8cb5-49f7-bd6e-67df7c68c29d}, !- Handle
  ASHRAE 189.1-2009 ExtWall Mass ClimateZone 7-8, !- Name
  ,                                       !- Surface Rendering Name
  {9590abd1-494e-485d-bc17-55dd179347fd}, !- Layer 1
  {23d97168-fd68-42d5-9f2a-d4ca52eaa64b}, !- Layer 2
  {e1431dc3-25ca-4252-8f40-b42f3117b557}, !- Layer 3
  {dd1d8791-ff32-4743-b2a0-8e525bed6dad}; !- Layer 4

OS:StandardsInformation:Construction,
  {d7692a25-bc5a-49b6-a081-31bbb20e5f63}, !- Handle
  {cc5ff56d-8cb5-49f7-bd6e-67df7c68c29d}, !- Construction Name
  ExteriorWall,                           !- Intended Surface Type
  Mass;                                   !- Standards Construction Type

OS:Material,
  {e1431dc3-25ca-4252-8f40-b42f3117b557}, !- Handle
  Wall Insulation [44],                   !- Name
  MediumRough,                            !- Roughness
  0.1104,                                 !- Thickness {m}
  0.0432,                                 !- Conductivity {W/m-K}
  91,                                     !- Density {kg/m3}
  836.999999999999,                       !- Specific Heat {J/kg-K}
  0.9,                                    !- Thermal Absorptance
  0.5,                                    !- Solar Absorptance
  0.5;                                    !- Visible Absorptance

OS:Construction,
  {74057133-d472-4bae-9b71-7c3edfa529d1}, !- Handle
  ASHRAE 189.1-2009 ExtWall Mass ClimateZone alt-res 1, !- Name
  ,                                       !- Surface Rendering Name
  {9590abd1-494e-485d-bc17-55dd179347fd}, !- Layer 1
  {23d97168-fd68-42d5-9f2a-d4ca52eaa64b}, !- Layer 2
  {76edc616-4961-44df-aca5-fc314096daa3}, !- Layer 3
  {dd1d8791-ff32-4743-b2a0-8e525bed6dad}; !- Layer 4

OS:StandardsInformation:Construction,
  {8601dce8-7995-4ba5-aaa1-9c1db17abc40}, !- Handle
  {74057133-d472-4bae-9b71-7c3edfa529d1}, !- Construction Name
  ExteriorWall,                           !- Intended Surface Type
  Mass;                                   !- Standards Construction Type

OS:Construction,
  {1973d27f-3019-4fe0-9047-ee3077f7c226}, !- Handle
  ASHRAE 189.1-2009 ExtWall Mass ClimateZone alt-res 2, !- Name
  ,                                       !- Surface Rendering Name
  {9590abd1-494e-485d-bc17-55dd179347fd}, !- Layer 1
  {23d97168-fd68-42d5-9f2a-d4ca52eaa64b}, !- Layer 2
  {8f7fa622-adcd-4aa0-a9c5-0d464f96b2c7}, !- Layer 3
  {dd1d8791-ff32-4743-b2a0-8e525bed6dad}; !- Layer 4

OS:StandardsInformation:Construction,
  {bcd24c10-6894-48bf-901f-f9ac69f3c218}, !- Handle
  {1973d27f-3019-4fe0-9047-ee3077f7c226}, !- Construction Name
  ExteriorWall,                           !- Intended Surface Type
  Mass;                                   !- Standards Construction Type

OS:Construction,
  {2d0f3981-9e6f-4619-a0c8-c28f62fd59f8}, !- Handle
  ASHRAE 189.1-2009 ExtWall Mass ClimateZone alt-res 3, !- Name
  ,                                       !- Surface Rendering Name
  {9590abd1-494e-485d-bc17-55dd179347fd}, !- Layer 1
  {23d97168-fd68-42d5-9f2a-d4ca52eaa64b}, !- Layer 2
  {e53af23a-0eb7-4c0f-b70a-54d2051e16cd}, !- Layer 3
  {dd1d8791-ff32-4743-b2a0-8e525bed6dad}; !- Layer 4

OS:StandardsInformation:Construction,
  {e3deccf6-2c45-4417-bd78-d80bdf2e8e45}, !- Handle
  {2d0f3981-9e6f-4619-a0c8-c28f62fd59f8}, !- Construction Name
  ExteriorWall,                           !- Intended Surface Type
  Mass;                                   !- Standards Construction Type

OS:Construction,
  {5a12eeae-a57e-44cc-81f2-1cc0d84e2f9e}, !- Handle
  ASHRAE 189.1-2009 ExtWall Mass ClimateZone alt-res 4, !- Name
  ,                                       !- Surface Rendering Name
  {9590abd1-494e-485d-bc17-55dd179347fd}, !- Layer 1
  {23d97168-fd68-42d5-9f2a-d4ca52eaa64b}, !- Layer 2
  {626c2654-a57e-45f9-a025-15a9fc5a4414}, !- Layer 3
  {dd1d8791-ff32-4743-b2a0-8e525bed6dad}; !- Layer 4

OS:StandardsInformation:Construction,
  {37b22301-dba6-4a33-9d35-e9d5da8dd294}, !- Handle
  {5a12eeae-a57e-44cc-81f2-1cc0d84e2f9e}, !- Construction Name
  ExteriorWall,                           !- Intended Surface Type
  Mass;                                   !- Standards Construction Type

OS:Construction,
  {9d4cba0c-f40a-4147-ad05-988e83a10239}, !- Handle
  ASHRAE 189.1-2009 ExtWall Mass ClimateZone alt-res 5, !- Name
  ,                                       !- Surface Rendering Name
  {9590abd1-494e-485d-bc17-55dd179347fd}, !- Layer 1
  {23d97168-fd68-42d5-9f2a-d4ca52eaa64b}, !- Layer 2
  {f2ae7b29-8471-4685-a1fc-34614be347a3}, !- Layer 3
  {dd1d8791-ff32-4743-b2a0-8e525bed6dad}; !- Layer 4

OS:StandardsInformation:Construction,
  {315a6cb4-2cbe-4d07-9838-3c6a7e295858}, !- Handle
  {9d4cba0c-f40a-4147-ad05-988e83a10239}, !- Construction Name
  ExteriorWall,                           !- Intended Surface Type
  Mass;                                   !- Standards Construction Type

OS:Construction,
  {ba5796aa-6f14-4dc0-b5ae-108464012d7c}, !- Handle
  ASHRAE 189.1-2009 ExtWall Mass ClimateZone alt-res 6, !- Name
  ,                                       !- Surface Rendering Name
  {9590abd1-494e-485d-bc17-55dd179347fd}, !- Layer 1
  {23d97168-fd68-42d5-9f2a-d4ca52eaa64b}, !- Layer 2
  {e1431dc3-25ca-4252-8f40-b42f3117b557}, !- Layer 3
  {dd1d8791-ff32-4743-b2a0-8e525bed6dad}; !- Layer 4

OS:StandardsInformation:Construction,
  {59838309-29ca-4d3e-8760-c4785af8ab2c}, !- Handle
  {ba5796aa-6f14-4dc0-b5ae-108464012d7c}, !- Construction Name
  ExteriorWall,                           !- Intended Surface Type
  Mass;                                   !- Standards Construction Type

OS:Construction,
  {20748c2b-2d9b-4b11-ac79-daf52c031d15}, !- Handle
  ASHRAE 189.1-2009 ExtWall Mass ClimateZone alt-res 7, !- Name
  ,                                       !- Surface Rendering Name
  {9590abd1-494e-485d-bc17-55dd179347fd}, !- Layer 1
  {23d97168-fd68-42d5-9f2a-d4ca52eaa64b}, !- Layer 2
  {e1431dc3-25ca-4252-8f40-b42f3117b557}, !- Layer 3
  {dd1d8791-ff32-4743-b2a0-8e525bed6dad}; !- Layer 4

OS:StandardsInformation:Construction,
  {d30e39af-c8ef-4ea9-b335-c1d7ca65a9a9}, !- Handle
  {20748c2b-2d9b-4b11-ac79-daf52c031d15}, !- Construction Name
  ExteriorWall,                           !- Intended Surface Type