
OS:Version,
  {d0fc3739-d944-4bad-b1aa-1d6a38a31f9e}, !- Handle
  1.3.3;                                  !- Version Identifier

OS:Construction,
  {277091cf-dfb4-45d8-997e-f221631379ae}, !- Handle
  ASHRAE 189.1-2009 AtticFloor ClimateZone 1-8, !- Name
  ,                                       !- Surface Rendering Name
  {1e4d5e95-35d8-491e-9740-92e3c16595bf}, !- Layer 1
  {514b5a1f-6981-4e4e-8e17-99c4abbb4082}, !- Layer 2
  {1e4d5e95-35d8-491e-9740-92e3c16595bf}; !- Layer 3

OS:StandardsInformation:Construction,
  {48f39c09-58b6-49b9-b394-fafcbe00aaf2}, !- Handle
  {277091cf-dfb4-45d8-997e-f221631379ae}, !- Construction Name
  AtticFloor,                             !- Intended Surface Type
  WoodFramed;                             !- Standards Construction Type

OS:Material,
  {1e4d5e95-35d8-491e-9740-92e3c16595bf}, !- Handle
  1/2IN Gypsum,                           !- Name
  Smooth,                                 !- Roughness
  0.0127,                                 !- Thickness {m}
  0.16,                                   !- Conductivity {W/m-K}
  784.9,                                  !- Density {kg/m3}
  830.000000000001,                       !- Specific Heat {J/kg-K}
  0.9,                                    !- Thermal Absorptance
  0.4,                                    !- Solar Absorptance
  0.4;                                    !- Visible Absorptance

OS:Material,
  {514b5a1f-6981-4e4e-8e17-99c4abbb4082}, !- Handle
  AtticFloor Insulation,                  !- Name
  MediumRough,                            !- Roughness
  0.2379,                                 !- Thickness {m}
  0.049,                                  !- Conductivity {W/m-K}
  265,                                    !- Density {kg/m3}
  836.800000000001,                       !- Specific Heat {J/kg-K}
  0.9,                                    !- Thermal Absorptance
  0.7,                                    !- Solar Absorptance
  0.7;                                    !- Visible Absorptance

OS:Construction,
  {1d2af321-067e-4d62-96d2-e94d1d6005d7}, !- Handle
  ASHRAE 189.1-2009 ExtRoof IEAD ClimateZone 1, !- Name
  ,                                       !- Surface Rendering Name
  {33f3704a-ff75-424f-80e1-38d603805a5a}, !- Layer 1
  {6ccb9733-ccd0-4f22-8377-4921452403c3}, !- Layer 2
  {355aedc9-91b9-4f46-be50-e3f302680344}; !- Layer 3

OS:StandardsInformation:Construction,
  {2a9a0982-2aa3-440f-886d-d99ddae181a1}, !- Handle
  {1d2af321-067e-4d62-96d2-e94d1d6005d7}, !- Construction Name
  ExteriorRoof,                           !- Intended Surface Type
  IEAD;                                   !- Standards Construction Type

OS:Material,
  {33f3704a-ff75-424f-80e1-38d603805a5a}, !- Handle
  Roof Membrane,                          !- Name
  VeryRough,                              !- Roughness
  0.0095,                                 !- Thickness {m}
  0.16,                                   !- Conductivity {W/m-K}
  1121.29,                                !- Density {kg/m3}
  1460,                                   !- Specific Heat {J/kg-K}
  0.9,                                    !- Thermal Absorptance
  0.7,                                    !- Solar Absorptance
  0.7;                                    !- Visible Absorptance

OS:Material,
  {6ccb9733-ccd0-4f22-8377-4921452403c3}, !- Handle
  Roof Insulation [18],                   !- Name
  MediumRough,                            !- Roughness
  0.1693,                                 !- Thickness {m}
  0.049,                                  !- Conductivity {W/m-K}
  265,                                    !- Density {kg/m3}
  836.800000000001,                       !- Specific Heat {J/kg-K}
  0.9,                                    !- Thermal Absorptance
  0.7,                                    !- Solar Absorptance
  0.7;                                    !- Visible Absorptance

OS:Material,
  {355aedc9-91b9-4f46-be50-e3f302680344}, !- Handle
  Metal Decking,                          !- Name
  MediumSmooth,                           !- Roughness
  0.0015,                                 !- Thickness {m}
  45.006,                                 !- Conductivity {W/m-K}
  7680,                                   !- Density {kg/m3}
  418.4,                                  !- Specific Heat {J/kg-K}
  0.9,                                    !- Thermal Absorptance
  0.6,                                    !- Solar Absorptance
  0.6;                                    !- Visible Absorptance

OS:Construction,
  {fcc0f6e2-7f98-45ec-9096-b793f9969b83}, !- Handle
  ASHRAE 189.1-2009 ExtRoof IEAD ClimateZone 2-5, !- Name
  ,                                       !- Surface Rendering Name
  {33f3704a-ff75-424f-80e1-38d603805a5a}, !- Layer 1
  {e07c5d81-0ebd-4fc5-9987-1a16334be74a}, !- Layer 2
  {355aedc9-91b9-4f46-be50-e3f302680344}; !- Layer 3

OS:StandardsInformation:Construction,
  {d5acde2a-2ad9-430c-9f93-63e2f4dd5888}, !- Handle
  {fcc0f6e2-7f98-45ec-9096-b793f9969b83}, !- Construction Name
  ExteriorRoof,                           !- Intended Surface Type
  IEAD;                                   !- Standards Construction Type

OS:Material,
  {e07c5d81-0ebd-4fc5-9987-1a16334be74a}, !- Handle
  Roof Insulation [21],                   !- Name
  MediumRough,                            !- Roughness
  0.2105,                                 !- Thickness {m}
  0.049,                                  !- Conductivity {W/m-K}
  265,                                    !- Density {kg/m3}
  836.800000000001,                       !- Specific Heat {J/kg-K}
  0.9,                                    !- Thermal Absorptance
  0.7,                                    !- Solar Absorptance
  0.7;                                    !- Visible Absorptance

OS:Construction,
  {8b9f79b3-9b71-450b-beb7-f797f1850b13}, !- Handle
  ASHRAE 189.1-2009 ExtRoof IEAD ClimateZone 6, !- Name
  ,                                       !- Surface Rendering Name
  {33f3704a-ff75-424f-80e1-38d603805a5a}, !- Layer 1
  {90a552e0-6573-491a-833c-f19be334fdc2}, !- Layer 2
  {355aedc9-91b9-4f46-be50-e3f302680344}; !- Layer 3

OS:StandardsInformation:Construction,
  {a4e60af4-9b48-4a67-96bc-4406677d95ee}, !- Handle
  {8b9f79b3-9b71-450b-beb7-f797f1850b13}, !- Construction Name
  ExteriorRoof,                           !- Intended Surface Type
  IEAD;                                   !- Standards Construction Type

OS:Material,
  {90a552e0-6573-491a-833c-f19be334fdc2}, !- Handle
  Roof Insulation [24],                   !- Name
  MediumRough,                            !- Roughness
  0.260100000000001,                      !- Thickness {m}
  0.049,                                  !- Conductivity {W/m-K}
  265,                                    !- Density {kg/m3}
  836.800000000001,                       !- Specific Heat {J/kg-K}
  0.9,                                    !- Thermal Absorptance
  0.7,                                    !- Solar Absorptance
  0.7;                                    !- Visible Absorptance

OS:Construction,
  {ab1332db-939c-448f-b0d9-130fa88b57ef}, !- Handle
  ASHRAE 189.1-2009 ExtRoof IEAD ClimateZone 7-8, !- Name
  ,                                       !- Surface Rendering Name
  {33f3704a-ff75-424f-80e1-38d603805a5a}, !- Layer 1
  {34cb6dd3-254a-47b2-a44a-af8b805252bf}, !- Layer 2
  {355aedc9-91b9-4f46-be50-e3f302680344}; !- Layer 3

OS:StandardsInformation:Construction,
  {a05918f8-48a2-45ef-96e0-c13b7b3b1f39}, !- Handle
  {ab1332db-939c-448f-b0d9-130fa88b57ef}, !- Construction Name
  ExteriorRoof,                           !- Intended Surface Type
  IEAD;                                   !- Standards Construction Type

OS:Material,
  {34cb6dd3-254a-47b2-a44a-af8b805252bf}, !- Handle
  Roof Insulation [26],                   !- Name
  MediumRough,                            !- Roughness
  0.2941,                                 !- Thickness {m}
  0.049,                                  !- Conductivity {W/m-K}
  265,                                    !- Density {kg/m3}
  836.800000000001,                       !- Specific Heat {J/kg-K}
  0.9,                                    !- Thermal Absorptance
  0.7,                                    !- Solar Absorptance
  0.7;                                    !- Visible Absorptance

OS:Construction,
  {81980a52-4446-42a2-a760-5e204aca79df}, !- Handle
  ASHRAE 189.1-2009 ExtRoof Metal ClimateZone 1, !- Name
  ,                                       !- Surface Rendering Name
  {7d6da5f8-c5d0-4b9f-9df4-08964d92d4af}, !- Layer 1
  {7eb42c3d-d049-483e-9bca-3a44d8cb525b}, !- Layer 2
  {355aedc9-91b9-4f46-be50-e3f302680344}; !- Layer 3

OS:StandardsInformation:Construction,
  {e6ce9929-cbb0-4d38-a07a-403df120f308}, !- Handle
  {81980a52-4446-42a2-a760-5e204aca79df}, !- Construction Name
  ExteriorRoof,                           !- Intended Surface Type
  Metal;                                  !- Standards Construction Type

OS:Material,
  {7d6da5f8-c5d0-4b9f-9df4-08964d92d4af}, !- Handle
  Metal Roofing,                          !- Name
  MediumSmooth,                           !- Roughness
  0.0015,                                 !- Thickness {m}
  45.006,                                 !- Conductivity {W/m-K}
  7680,                                   !- Density {kg/m3}
  418.4,                                  !- Specific Heat {J/kg-K}
  0.9,                                    !- Thermal Absorptance
  0.6,                                    !- Solar Absorptance
  0.6;                                    !- Visible Absorptance

OS:Material,
  {7eb42c3d-d049-483e-9bca-3a44d8cb525b}, !- Handle
  Roof Insulation [19],                   !- Name
  MediumRough,                            !- Roughness
  0.1868,                                 !- Thickness {m}
  0.049,                                  !- Conductivity {W/m-K}
  265,                                    !- Density {kg/m3}
  836.800000000001,                       !- Specific Heat {J/kg-K}
  0.9,                                    !- Thermal Absorptance
  0.7,                                    !- Solar Absorptance
  0.7;                                    !- Visible Absorptance

OS:Construction,
  {0f857216-2fe7-47ed-8398-9cd93f42e7bb}, !- Handle
  ASHRAE 189.1-2009 ExtRoof Metal ClimateZone 2-5, !- Name
  ,                                       !- Surface Rendering Name
  {7d6da5f8-c5d0-4b9f-9df4-08964d92d4af}, !- Layer 1
  {fe7b4915-b3e2-45ad-bc05-27b1a647e0de}, !- Layer 2
  {355aedc9-91b9-4f46-be50-e3f302680344}; !- Layer 3

OS:StandardsInformation:Construction,
  {7906ab50-0d53-4982-b6a9-c6711989988e}, !- Handle
  {0f857216-2fe7-47ed-8398-9cd93f42e7bb}, !- Construction Name
  ExteriorRoof,                           !- Intended Surface Type
  Metal;                                  !- Standards Construction Type

OS:Material,
  {fe7b4915-b3e2-45ad-bc05-27b1a647e0de}, !- Handle
  Roof Insulation [22],                   !- Name
  MediumRough,                            !- Roughness
  0.2358,                                 !- Thickness {m}
  0.049,                                  !- Conductivity {W/m-K}
  265,                                    !- Density {kg/m3}
  836.800000000001,                       !- Specific Heat {J/kg-K}
  0.9,                                    !- Thermal Absorptance
  0.7,                                    !- Solar Absorptance
  0.7;                                    !- Visible Absorptance

OS:Construction,
  {96942819-ed57-4cf7-a374-db6f55e46819}, !- Handle
  ASHRAE 189.1-2009 ExtRoof Metal ClimateZone 6, !- Name
  ,                                       !- Surface Rendering Name
  {7d6da5f8-c5d0-4b9f-9df4-08964d92d4af}, !- Layer 1
  {3c8267df-a179-4dd4-b754-8655615f90f3}, !- Layer 2
  {355aedc9-91b9-4f46-be50-e3f302680344}; !- Layer 3

OS:StandardsInformation:Construction,
  {0925af60-642a-4d1c-9968-ec59dde2fdc4}, !- Handle
  {96942819-ed57-4cf7-a374-db6f55e46819}, !- Construction Name
  ExteriorRoof,                           !- Intended Surface Type
  Metal;                                  !- Standards Construction Type

OS:Material,
  {3c8267df-a179-4dd4-b754-8655615f90f3}, !- Handle
  Roof Insulation [25],                   !- Name
  MediumRough,                            !- Roughness
  0.263,                                  !- Thickness {m}
  0.049,                                  !- Conductivity {W/m-K}
  265,                                    !- Density {kg/m3}
  836.800000000001,                       !- Specific Heat {J/kg-K}
  0.9,                                    !- Thermal Absorptance
  0.7,                                    !- Solar Absorptance
  0.7;                                    !- Visible Absorptance

OS:Construction,
  {21e9f3ad-ac42-4c0b-8a5e-e0a296632ab4}, !- Handle
  ASHRAE 189.1-2009 ExtRoof Metal ClimateZone 7-8, !- Name
  ,                                       !- Surface Rendering Name
  {7d6da5f8-c5d0-4b9f-9df4-08964d92d4af}, !- Layer 1
  {38e67333-6e8d-45e2-8c7d-09c5d5d4e6fd}, !- Layer 2
  {355aedc9-91b9-4f46-be50-e3f302680344}; !- Layer 3

OS:StandardsInformation:Construction,
  {f2a6c415-fb51-4437-a2f7-3b29f439bc0e}, !- Handle
  {21e9f3ad-ac42-4c0b-8a5e-e0a296632ab4}, !- Construction Name
  ExteriorRoof,                           !- Intended Surface Type
  Metal;                                  !- Standards Construction Type

OS:Material,
  {38e67333-6e8d-45e2-8c7d-09c5d5d4e6fd}, !- Handle
  Roof Insulation [27],                   !- Name
  MediumRough,                            !- Roughness
  0.297000000000001,                      !- Thickness {m}
  0.049,                                  !- Conductivity {W/m-K}
  265,                                    !- Density {kg/m3}
  836.800000000001,                       !- Specific Heat {J/kg-K}
  0.9,                                    !- Thermal Absorptance
  0.7,                                    !- Solar Absorptance
  0.7;                                    !- Visible Absorptance

OS:Construction,
  {f131a35b-68ff-44ff-81ad-831bdf3a55ee}, !- Handle
  ASHRAE 189.1-2009 ExtWall Mass ClimateZone 1, !- Name
  ,                                       !- Surface Rendering Name
  {e274bb15-fd6f-4f8d-8368-335566ab0b8c}, !- Layer 1
  {8a5f87ef-aa3c-4955-b632-06adce2b264c}, !- Layer 2
  {7b3f15e9-5554-4dc6-834e-7fd0a4ca9b05}, !- Layer 3
  {1e4d5e95-35d8-491e-9740-92e3c16595bf}; !- Layer 4

OS:StandardsInformation:Construction,
  {0bdfcd53-3594-4490-98db-0f0e724d19bf}, !- Handle
  {f131a35b-68ff-44ff-81ad-831bdf3a55ee}, !- Construction Name
  ExteriorWall,                           !- Intended Surface Type
  Mass;                                   !- Standards Construction Type

OS:Material,
  {e274bb15-fd6f-4f8d-8368-335566ab0b8c}, !- Handle
  1IN Stucco,                             !- Name
  Smooth,                                 !- Roughness
  0.0253,                                 !- Thickness {m}
  0.691799999999999,                      !- Conductivity {W/m-K}
  1858,                                   !- Density {kg/m3}
  836.999999999999,                       !- Specific Heat {J/kg-K}
  0.9,                                    !- Thermal Absorptance
  0.92,                                   !- Solar Absorptance
  0.92;                                   !- Visible Absorptance

OS:Material,
  {8a5f87ef-aa3c-4955-b632-06adce2b264c}, !- Handle
  8IN Concrete HW,                        !- Name
  MediumRough,                            !- Roughness
  0.2033,                                 !- Thickness {m}
  1.72959999999999,                       !- Conductivity {W/m-K}
  2242.99999999999,                       !- Density {kg/m3}
  836.999999999999,                       !- Specific Heat {J/kg-K}
  0.9,                                    !- Thermal Absorptance
  0.65,                                   !- Solar Absorptance
  0.65;                                   !- Visible Absorptance

OS:Material,
  {7b3f15e9-5554-4dc6-834e-7fd0a4ca9b05}, !- Handle
  Wall Insulation [31],                   !- Name
  MediumRough,                            !- Roughness
  0.0337000000000001,                     !- Thickness {m}
  0.0432,                                 !- Conductivity {W/m-K}
  91,                                     !- Density {kg/m3}
  836.999999999999,                       !- Specific Heat {J/kg-K}
  0.9,                                    !- Thermal Absorptance
  0.5,                                    !- Solar Absorptance
  0.5;                                    !- Visible Absorptance

OS:Construction,
  {c2f85e28-ec4a-4fee-bd00-a7b37afe0548}, !- Handle
  ASHRAE 189.1-2009 ExtWall Mass ClimateZone 2, !- Name
  ,                                       !- Surface Rendering Name
  {e274bb15-fd6f-4f8d-8368-335566ab0b8c}, !- Layer 1
  {8a5f87ef-aa3c-4955-b632-06adce2b264c}, !- Layer 2
  {abd8e94f-3317-44c3-8da5-1772dc090ca1}, !- Layer 3
  {1e4d5e95-35d8-491e-9740-92e3c16595bf}; !- Layer 4

OS:StandardsInformation:Construction,
  {a0c241af-e79a-4b45-878f-e00c83c75489}, !- Handle
  {c2f85e28-ec4a-4fee-bd00-a7b37afe0548}, !- Construction Name
  ExteriorWall,                           !- Intended Surface Type
  Mass;                                   !- Standards Construction Type

OS:Material,
  {abd8e94f-3317-44c3-8da5-1772dc090ca1}, !- Handle
  Wall Insulation [35],                   !- Name
  MediumRough,                            !- Roughness
  0.0452,                                 !- Thickness {m}
  0.0432,                                 !- Conductivity {W/m-K}
  91,                                     !- Density {kg/m3}
  836.999999999999,                       !- Specific Heat {J/kg-K}
  0.9,                                    !- Thermal Absorptance
  0.5,                                    !- Solar Absorptance
  0.5;                                    !- Visible Absorptance

OS:Construction,
  {dabc0d6f-0bc1-4bc6-b261-e1e1bb0c9dd3}, !- Handle
  ASHRAE 189.1-2009 ExtWall Mass ClimateZone 3, !- Name
  ,                                       !- Surface Rendering Name
  {e274bb15-fd6f-4f8d-8368-335566ab0b8c}, !- Layer 1
  {8a5f87ef-aa3c-4955-b632-06adce2b264c}, !- Layer 2
  {ef829279-0af2-412d-ab64-1dde97f10be6}, !- Layer 3
  {1e4d5e95-35d8-491e-9740-92e3c16595bf}; !- Layer 4

OS:StandardsInformation:Construction,
  {3f82b57d-99e5-487f-b1bd-6e4f400c9003}, !- Handle
  {dabc0d6f-0bc1-4bc6-b261-e1e1bb0c9dd3}, !- Construction Name
  ExteriorWall,                           !- Intended Surface Type
  Mass;                                   !- Standards Construction Type

OS:Material,
  {ef829279-0af2-412d-ab64-1dde97f10be6}, !- Handle
  Wall Insulation [36],                   !- Name
  MediumRough,                            !- Roughness
  0.0565999999999999,                     !- Thickness {m}
  0.0432,                                 !- Conductivity {W/m-K}
  91,                                     !- Density {kg/m3}
  836.999999999999,                       !- Specific Heat {J/kg-K}
  0.9,                                    !- Thermal Absorptance
  0.5,                                    !- Solar Absorptance
  0.5;                                    !- Visible Absorptance

OS:Construction,
  {586497a3-6b14-485d-a0ac-300d44cc835a}, !- Handle
  ASHRAE 189.1-2009 ExtWall Mass ClimateZone 4, !- Name
  ,                                       !- Surface Rendering Name
  {e274bb15-fd6f-4f8d-8368-335566ab0b8c}, !- Layer 1
  {8a5f87ef-aa3c-4955-b632-06adce2b264c}, !- Layer 2
  {46f28efe-d3df-4743-afde-f1e3797fe50e}, !- Layer 3
  {1e4d5e95-35d8-491e-9740-92e3c16595bf}; !- Layer 4

OS:StandardsInformation:Construction,
  {23883a09-9c90-4d18-ad69-7ac6db9f5c37}, !- Handle
  {586497a3-6b14-485d-a0ac-300d44cc835a}, !- Construction Name
  ExteriorWall,                           !- Intended Surface Type
  Mass;                                   !- Standards Construction Type

OS:Material,
  {46f28efe-d3df-4743-afde-f1e3797fe50e}, !- Handle
  Wall Insulation [37],                   !- Name
  MediumRough,                            !- Roughness
  0.0680999999999999,                     !- Thickness {m}
  0.0432,                                 !- Conductivity {W/m-K}
  91,                                     !- Density {kg/m3}
  836.999999999999,                       !- Specific Heat {J/kg-K}
  0.9,                                    !- Thermal Absorptance
  0.5,                                    !- Solar Absorptance
  0.5;                                    !- Visible Absorptance

OS:Construction,
  {5b17a4b6-de40-408b-8028-e23375a3e5e9}, !- Handle
  ASHRAE 189.1-2009 ExtWall Mass ClimateZone 5, !- Name
  ,                                       !- Surface Rendering Name
  {e274bb15-fd6f-4f8d-8368-335566ab0b8c}, !- Layer 1
  {8a5f87ef-aa3c-4955-b632-06adce2b264c}, !- Layer 2
  {485653ab-7437-469b-80a2-7a21962fa2a7}, !- Layer 3
  {1e4d5e95-35d8-491e-9740-92e3c16595bf}; !- Layer 4

OS:StandardsInformation:Construction,
  {28fe5fce-444c-40ea-a84e-2349f7210a83}, !- Handle
  {5b17a4b6-de40-408b-8028-e23375a3e5e9}, !- Construction Name
  ExteriorWall,                           !- Intended Surface Type
  Mass;                                   !- Standards Construction Type

OS:Material,
  {485653ab-7437-469b-80a2-7a21962fa2a7}, !- Handle
  Wall Insulation [40],                   !- Name
  MediumRough,                            !- Roughness
  0.0793999999999999,                     !- Thickness {m}
  0.0432,                                 !- Conductivity {W/m-K}
  91,                                     !- Density {kg/m3}
  836.999999999999,                       !- Specific Heat {J/kg-K}
  0.9,                                    !- Thermal Absorptance
  0.5,                                    !- Solar Absorptance
  0.5;                                    !- Visible Absorptance

OS:Construction,
  {34929b1f-c076-4361-b82e-c1134d7972ac}, !- Handle
  ASHRAE 189.1-2009 ExtWall Mass ClimateZone 6, !- Name
  ,                                       !- Surface Rendering Name
  {e274bb15-fd6f-4f8d-8368-335566ab0b8c}, !- Layer 1
  {8a5f87ef-aa3c-4955-b632-06adce2b264c}, !- Layer 2
  {fe7b178a-ef48-4c6d-a8cf-56567c7df689}, !- Layer 3
  {1e4d5e95-35d8-491e-9740-92e3c16595bf}; !- Layer 4

OS:StandardsInformation:Construction,
  {24f79680-9a52-4939-b7de-03fd25055e0a}, !- Handle
  {34929b1f-c076-4361-b82e-c1134d7972ac}, !- Construction Name
  ExteriorWall,                           !- Intended Surface Type
  Mass;                                   !- Standards Construction Type

OS:Material,
  {fe7b178a-ef48-4c6d-a8cf-56567c7df689}, !- Handle
  Wall Insulation [42],                   !- Name
  MediumRough,                            !- Roughness
  0.0913999999999999,                     !- Thickness {m}
  0.0432,                                 !- Conductivity {W/m-K}
  91,                                     !- Density {kg/m3}
  836.999999999999,                       !- Specific Heat {J/kg-K}
  0.9,                                    !- Thermal Absorptance
  0.5,                                    !- Solar Absorptance
  0.5;                                    !- Visible Absorptance

OS:Construction,
  {e56ffbc6-9989-4060-b7a6-a07094fa557b}, !- Handle
  ASHRAE 189.1-2009 ExtWall Mass ClimateZone 7-8, !- Name
  ,                                       !- Surface Rendering Name
  {e274bb15-fd6f-4f8d-8368-335566ab0b8c}, !- Layer 1
  {8a5f87ef-aa3c-4955-b632-06adce2b264c}, !- Layer 2
  {bde38db8-666c-4b66-b28a-3123aa15fc6b}, !- Layer 3
  {1e4d5e95-35d8-491e-9740-92e3c16595bf}; !- Layer 4

OS:StandardsInformation:Construction,
  {d5a519f0-3948-4f2a-8c4d-b556bdaff489}, !- Handle
  {e56ffbc6-9989-4060-b7a6-a07094fa557b}, !- Construction Name
  ExteriorWall,                           !- Intended Surface Type
  Mass;                                   !- Standards Construction Type

OS:Material,
  {bde38db8-666c-4b66-b28a-3123aa15fc6b}, !- Handle
  Wall Insulation [44],                   !- Name
  MediumRough,                            !- Roughness
  0.1104,                                 !- Thickness {m}
  0.0432,                                 !- Conductivity {W/m-K}
  91,                                     !- Density {kg/m3}
  836.999999999999,                       !- Specific Heat {J/kg-K}
  0.9,                                    !- Thermal Absorptance
  0.5,                                    !- Solar Absorptance
  0.5;                                    !- Visible Absorptance

OS:Construction,
  {afc3517f-acbc-4257-84e0-45313da2070d}, !- Handle
  ASHRAE 189.1-2009 ExtWall Mass ClimateZone alt-res 1, !- Name
  ,                                       !- Surface Rendering Name
  {e274bb15-fd6f-4f8d-8368-335566ab0b8c}, !- Layer 1
  {8a5f87ef-aa3c-4955-b632-06adce2b264c}, !- Layer 2
  {abd8e94f-3317-44c3-8da5-1772dc090ca1}, !- Layer 3
  {1e4d5e95-35d8-491e-9740-92e3c16595bf}; !- Layer 4

OS:StandardsInformation:Construction,
  {023de869-4bf7-4603-ad0b-bd2c7804bdca}, !- Handle
  {afc3517f-acbc-4257-84e0-45313da2070d}, !- Construction Name
  ExteriorWall,                           !- Intended Surface Type
  Mass;                                   !- Standards Construction Type

OS:Construction,
  {d026cba6-9a34-4461-9ad4-40a2e8c6a881}, !- Handle
  ASHRAE 189.1-2009 ExtWall Mass ClimateZone alt-res 2, !- Name
  ,                                       !- Surface Rendering Name
  {e274bb15-fd6f-4f8d-8368-335566ab0b8c}, !- Layer 1
  {8a5f87ef-aa3c-4955-b632-06adce2b264c}, !- Layer 2
  {ef829279-0af2-412d-ab64-1dde97f10be6}, !- Layer 3
  {1e4d5e95-35d8-491e-9740-92e3c16595bf}; !- Layer 4

OS:StandardsInformation:Construction,
  {b06da169-5d3a-44fd-b8cc-9ff392e46882}, !- Handle
  {d026cba6-9a34-4461-9ad4-40a2e8c6a881}, !- Construction Name
  ExteriorWall,                           !- Intended Surface Type
  Mass;                                   !- Standards Construction Type

OS:Construction,
  {9d227167-5dd0-4249-87c7-451fda07c41a}, !- Handle
  ASHRAE 189.1-2009 ExtWall Mass ClimateZone alt-res 3, !- Name
  ,                                       !- Surface Rendering Name
  {e274bb15-fd6f-4f8d-8368-335566ab0b8c}, !- Layer 1
  {8a5f87ef-aa3c-4955-b632-06adce2b264c}, !- Layer 2
  {46f28efe-d3df-4743-afde-f1e3797fe50e}, !- Layer 3
  {1e4d5e95-35d8-491e-9740-92e3c16595bf}; !- Layer 4

OS:StandardsInformation:Construction,
  {bebd1716-9218-443f-aa96-fadcf64c2a3f}, !- Handle
  {9d227167-5dd0-4249-87c7-451fda07c41a}, !- Construction Name
  ExteriorWall,                           !- Intended Surface Type
  Mass;                                   !- Standards Construction Type

OS:Construction,
  {e0262ca5-1f83-4ea9-86ce-8bbd83b921fc}, !- Handle
  ASHRAE 189.1-2009 ExtWall Mass ClimateZone alt-res 4, !- Name
  ,                                       !- Surface Rendering Name
  {e274bb15-fd6f-4f8d-8368-335566ab0b8c}, !- Layer 1
  {8a5f87ef-aa3c-4955-b632-06adce2b264c}, !- Layer 2
  {485653ab-7437-469b-80a2-7a21962fa2a7}, !- Layer 3
  {1e4d5e95-35d8-491e-9740-92e3c16595bf}; !- Layer 4

OS:StandardsInformation:Construction,
  {2727d648-df65-4cb0-a56d-0cf8624024ed}, !- Handle
  {e0262ca5-1f83-4ea9-86ce-8bbd83b921fc}, !- Construction Name
  ExteriorWall,                           !- Intended Surface Type
  Mass;                                   !- Standards Construction Type

OS:Construction,
  {57213618-eb1c-4cb2-a49d-25e6220b4e8b}, !- Handle
  ASHRAE 189.1-2009 ExtWall Mass ClimateZone alt-res 5, !- Name
  ,                                       !- Surface Rendering Name
  {e274bb15-fd6f-4f8d-8368-335566ab0b8c}, !- Layer 1
  {8a5f87ef-aa3c-4955-b632-06adce2b264c}, !- Layer 2
  {fe7b178a-ef48-4c6d-a8cf-56567c7df689}, !- Layer 3
  {1e4d5e95-35d8-491e-9740-92e3c16595bf}; !- Layer 4

OS:StandardsInformation:Construction,
  {7b7a7afe-32a3-4dc8-b472-8c1e796744ed}, !- Handle
  {57213618-eb1c-4cb2-a49d-25e6220b4e8b}, !- Construction Name
  ExteriorWall,                           !- Intended Surface Type
  Mass;                                   !- Standards Construction Type

OS:Construction,
  {00bb02ae-dcc8-4abb-b8d1-ae8eb380b068}, !- Handle
  ASHRAE 189.1-2009 ExtWall Mass ClimateZone alt-res 6, !- Name
  ,                                       !- Surface Rendering Name
  {e274bb15-fd6f-4f8d-8368-335566ab0b8c}, !- Layer 1
  {8a5f87ef-aa3c-4955-b632-06adce2b264c}, !- Layer 2
  {bde38db8-666c-4b66-b28a-3123aa15fc6b}, !- Layer 3
  {1e4d5e95-35d8-491e-9740-92e3c16595bf}; !- Layer 4

OS:StandardsInformation:Construction,
  {539b505f-0c47-4797-8324-ede24e728153}, !- Handle
  {00bb02ae-dcc8-4abb-b8d1-ae8eb380b068}, !- Construction Name
  ExteriorWall,                           !- Intended Surface Type
  Mass;                                   !- Standards Construction Type

OS:Construction,
  {22b23b33-cbd4-4e3b-974b-87edc38c2eaa}, !- Handle
  ASHRAE 189.1-2009 ExtWall Mass ClimateZone alt-res 7, !- Name
  ,                                       !- Surface Rendering Name
  {e274bb15-fd6f-4f8d-8368-335566ab0b8c}, !- Layer 1
  {8a5f87ef-aa3c-4955-b632-06adce2b264c}, !- Layer 2
  {bde38db8-666c-4b66-b28a-3123aa15fc6b}, !- Layer 3
  {1e4d5e95-35d8-491e-9740-92e3c16595bf}; !- Layer 4

OS:StandardsInformation:Construction,
  {5f679831-087f-4047-a939-f05372f80a8a}, !- Handle
  {22b23b33-cbd4-4e3b-974b-87edc38c2eaa}, !- Construction Name
  ExteriorWall,                           !- Intended Surface Type