
OS:Version,
  {66372054-cdcf-4b8c-bc34-ccacaf7273ca}, !- Handle
  1.2.3;                                  !- Version Identifier

OS:Construction,
  {b66e7910-1296-4bd0-8d96-ebcf6ab99557}, !- Handle
  ASHRAE 189.1-2009 AtticFloor ClimateZone 1-8, !- Name
  ,                                       !- Surface Rendering Name
  {a50dc399-0463-4bd8-a994-2ff9e045d49f}, !- Layer 1
  {851e5c03-3740-4ba2-b136-07a73d177a07}, !- Layer 2
  {a50dc399-0463-4bd8-a994-2ff9e045d49f}; !- Layer 3

OS:StandardsInformation:Construction,
  {4f4d4c3a-f6ce-48be-8efa-936980693109}, !- Handle
  {b66e7910-1296-4bd0-8d96-ebcf6ab99557}, !- Construction Name
  AtticFloor,                             !- Intended Surface Type
  ASHRAE 189.1-2009;                      !- Standards Construction Type

OS:Material,
  {a50dc399-0463-4bd8-a994-2ff9e045d49f}, !- Handle
  1/2IN Gypsum,                           !- Name
  Smooth,                                 !- Roughness
  0.0127,                                 !- Thickness {m}
  0.16,                                   !- Conductivity {W/m-K}
  784.9,                                  !- Density {kg/m3}
  830.000000000001,                       !- Specific Heat {J/kg-K}
  0.9,                                    !- Thermal Absorptance
  0.92,                                   !- Solar Absorptance
  0.92;                                   !- Visible Absorptance

OS:Material,
  {851e5c03-3740-4ba2-b136-07a73d177a07}, !- Handle
  AtticFloor Insulation,                  !- Name
  MediumRough,                            !- Roughness
  0.2379,                                 !- Thickness {m}
  0.049,                                  !- Conductivity {W/m-K}
  265,                                    !- Density {kg/m3}
  836.800000000001,                       !- Specific Heat {J/kg-K}
  0.9,                                    !- Thermal Absorptance
  0.7,                                    !- Solar Absorptance
  0.7;                                    !- Visible Absorptance

OS:Construction,
  {d53308c2-5f47-4dda-8eea-b8345a91711f}, !- Handle
  ASHRAE 189.1-2009 ExtRoof IEAD ClimateZone 1, !- Name
  ,                                       !- Surface Rendering Name
  {89a0d751-a627-475e-9395-1a8922ae5f37}, !- Layer 1
  {4fb6fb70-0b04-49af-ae1b-1298f4978749}, !- Layer 2
  {bdb1b077-bee1-40cb-918e-b7099cc9bb7f}; !- Layer 3

OS:StandardsInformation:Construction,
  {55e2e6d6-6bd2-415a-913a-b1f1ecaa3bcf}, !- Handle
  {d53308c2-5f47-4dda-8eea-b8345a91711f}, !- Construction Name
  ExteriorRoof,                           !- Intended Surface Type
  ASHRAE 189.1-2009;                      !- Standards Construction Type

OS:Material,
  {89a0d751-a627-475e-9395-1a8922ae5f37}, !- Handle
  Roof Membrane,                          !- Name
  VeryRough,                              !- Roughness
  0.0095,                                 !- Thickness {m}
  0.16,                                   !- Conductivity {W/m-K}
  1121.29,                                !- Density {kg/m3}
  1460,                                   !- Specific Heat {J/kg-K}
  0.9,                                    !- Thermal Absorptance
  0.7,                                    !- Solar Absorptance
  0.7;                                    !- Visible Absorptance

OS:Material,
  {4fb6fb70-0b04-49af-ae1b-1298f4978749}, !- Handle
  Roof Insulation [18],                   !- Name
  MediumRough,                            !- Roughness
  0.1693,                                 !- Thickness {m}
  0.049,                                  !- Conductivity {W/m-K}
  265,                                    !- Density {kg/m3}
  836.800000000001,                       !- Specific Heat {J/kg-K}
  0.9,                                    !- Thermal Absorptance
  0.7,                                    !- Solar Absorptance
  0.7;                                    !- Visible Absorptance

OS:Material,
  {bdb1b077-bee1-40cb-918e-b7099cc9bb7f}, !- Handle
  Metal Decking,                          !- Name
  MediumSmooth,                           !- Roughness
  0.0015,                                 !- Thickness {m}
  45.006,                                 !- Conductivity {W/m-K}
  7680,                                   !- Density {kg/m3}
  418.4,                                  !- Specific Heat {J/kg-K}
  0.9,                                    !- Thermal Absorptance
  0.7,                                    !- Solar Absorptance
  0.3;                                    !- Visible Absorptance

OS:Construction,
  {991e7816-c10a-430f-96d9-459a518b2224}, !- Handle
  ASHRAE 189.1-2009 ExtRoof IEAD ClimateZone 2-5, !- Name
  ,                                       !- Surface Rendering Name
  {89a0d751-a627-475e-9395-1a8922ae5f37}, !- Layer 1
  {203b3e18-6c7d-4e24-a25c-2fff56e56dbb}, !- Layer 2
  {bdb1b077-bee1-40cb-918e-b7099cc9bb7f}; !- Layer 3

OS:StandardsInformation:Construction,
  {9ff6843d-441f-49da-9dbb-8b0b9b81d957}, !- Handle
  {991e7816-c10a-430f-96d9-459a518b2224}, !- Construction Name
  ExteriorRoof,                           !- Intended Surface Type
  ASHRAE 189.1-2009;                      !- Standards Construction Type

OS:Material,
  {203b3e18-6c7d-4e24-a25c-2fff56e56dbb}, !- Handle
  Roof Insulation [21],                   !- Name
  MediumRough,                            !- Roughness
  0.2105,                                 !- Thickness {m}
  0.049,                                  !- Conductivity {W/m-K}
  265,                                    !- Density {kg/m3}
  836.800000000001,                       !- Specific Heat {J/kg-K}
  0.9,                                    !- Thermal Absorptance
  0.7,                                    !- Solar Absorptance
  0.7;                                    !- Visible Absorptance

OS:Construction,
  {2b4b1fa7-5caf-49b3-99dd-365943750cff}, !- Handle
  ASHRAE 189.1-2009 ExtRoof IEAD ClimateZone 6, !- Name
  ,                                       !- Surface Rendering Name
  {89a0d751-a627-475e-9395-1a8922ae5f37}, !- Layer 1
  {a8f2e580-698a-4af6-a158-a47c9dd96ee3}, !- Layer 2
  {bdb1b077-bee1-40cb-918e-b7099cc9bb7f}; !- Layer 3

OS:StandardsInformation:Construction,
  {00f49619-a1fe-4599-b19c-498309480290}, !- Handle
  {2b4b1fa7-5caf-49b3-99dd-365943750cff}, !- Construction Name
  ExteriorRoof,                           !- Intended Surface Type
  ASHRAE 189.1-2009;                      !- Standards Construction Type

OS:Material,
  {a8f2e580-698a-4af6-a158-a47c9dd96ee3}, !- Handle
  Roof Insulation [24],                   !- Name
  MediumRough,                            !- Roughness
  0.260100000000001,                      !- Thickness {m}
  0.049,                                  !- Conductivity {W/m-K}
  265,                                    !- Density {kg/m3}
  836.800000000001,                       !- Specific Heat {J/kg-K}
  0.9,                                    !- Thermal Absorptance
  0.7,                                    !- Solar Absorptance
  0.7;                                    !- Visible Absorptance

OS:Construction,
  {e54355f4-b283-4bfe-87fc-11da4db37c1e}, !- Handle
  ASHRAE 189.1-2009 ExtRoof IEAD ClimateZone 7-8, !- Name
  ,                                       !- Surface Rendering Name
  {89a0d751-a627-475e-9395-1a8922ae5f37}, !- Layer 1
  {9d8abcc2-c688-4ead-afb0-ea6834fc7ef5}, !- Layer 2
  {bdb1b077-bee1-40cb-918e-b7099cc9bb7f}; !- Layer 3

OS:StandardsInformation:Construction,
  {ca0fea7f-0f45-43d2-bcbf-571afe1174c4}, !- Handle
  {e54355f4-b283-4bfe-87fc-11da4db37c1e}, !- Construction Name
  ExteriorRoof,                           !- Intended Surface Type
  ASHRAE 189.1-2009;                      !- Standards Construction Type

OS:Material,
  {9d8abcc2-c688-4ead-afb0-ea6834fc7ef5}, !- Handle
  Roof Insulation [26],                   !- Name
  MediumRough,                            !- Roughness
  0.2941,                                 !- Thickness {m}
  0.049,                                  !- Conductivity {W/m-K}
  265,                                    !- Density {kg/m3}
  836.800000000001,                       !- Specific Heat {J/kg-K}
  0.9,                                    !- Thermal Absorptance
  0.7,                                    !- Solar Absorptance
  0.7;                                    !- Visible Absorptance

OS:Construction,
  {3bf60506-f067-4e40-8a4b-6f8d46a25c4f}, !- Handle
  ASHRAE 189.1-2009 ExtRoof Metal ClimateZone 1, !- Name
  ,                                       !- Surface Rendering Name
  {bed288ae-9518-4f4b-9b68-007d657c17f8}, !- Layer 1
  {f925943f-a7d3-44a2-a403-2c33ddb0bd37}; !- Layer 2

OS:StandardsInformation:Construction,
  {9c722df1-9e08-443a-b3f4-66893eef75d8}, !- Handle
  {3bf60506-f067-4e40-8a4b-6f8d46a25c4f}, !- Construction Name
  ExteriorRoof,                           !- Intended Surface Type
  ASHRAE 189.1-2009;                      !- Standards Construction Type

OS:Material,
  {bed288ae-9518-4f4b-9b68-007d657c17f8}, !- Handle
  Metal Roofing,                          !- Name
  MediumSmooth,                           !- Roughness
  0.0015,                                 !- Thickness {m}
  45.006,                                 !- Conductivity {W/m-K}
  7680,                                   !- Density {kg/m3}
  418.4,                                  !- Specific Heat {J/kg-K}
  0.9,                                    !- Thermal Absorptance
  0.3,                                    !- Solar Absorptance
  0.3;                                    !- Visible Absorptance

OS:Material,
  {f925943f-a7d3-44a2-a403-2c33ddb0bd37}, !- Handle
  Roof Insulation [19],                   !- Name
  MediumRough,                            !- Roughness
  0.1868,                                 !- Thickness {m}
  0.049,                                  !- Conductivity {W/m-K}
  265,                                    !- Density {kg/m3}
  836.800000000001,                       !- Specific Heat {J/kg-K}
  0.9,                                    !- Thermal Absorptance
  0.7,                                    !- Solar Absorptance
  0.7;                                    !- Visible Absorptance

OS:Construction,
  {678ff7e6-1186-4be7-bd58-8f7476fabd37}, !- Handle
  ASHRAE 189.1-2009 ExtRoof Metal ClimateZone 2-5, !- Name
  ,                                       !- Surface Rendering Name
  {bed288ae-9518-4f4b-9b68-007d657c17f8}, !- Layer 1
  {27fb65a5-150c-471e-a13c-a342b483dc7e}; !- Layer 2

OS:StandardsInformation:Construction,
  {aba80b31-ca1d-4776-9504-4faa40cbbaab}, !- Handle
  {678ff7e6-1186-4be7-bd58-8f7476fabd37}, !- Construction Name
  ExteriorRoof,                           !- Intended Surface Type
  ASHRAE 189.1-2009;                      !- Standards Construction Type

OS:Material,
  {27fb65a5-150c-471e-a13c-a342b483dc7e}, !- Handle
  Roof Insulation [22],                   !- Name
  MediumRough,                            !- Roughness
  0.2358,                                 !- Thickness {m}
  0.049,                                  !- Conductivity {W/m-K}
  265,                                    !- Density {kg/m3}
  836.800000000001,                       !- Specific Heat {J/kg-K}
  0.9,                                    !- Thermal Absorptance
  0.7,                                    !- Solar Absorptance
  0.7;                                    !- Visible Absorptance

OS:Construction,
  {4eac8111-654e-4afd-be1a-82e63e144498}, !- Handle
  ASHRAE 189.1-2009 ExtRoof Metal ClimateZone 6, !- Name
  ,                                       !- Surface Rendering Name
  {bed288ae-9518-4f4b-9b68-007d657c17f8}, !- Layer 1
  {a6fbefdf-5a3b-483b-85b5-c22f94428736}; !- Layer 2

OS:StandardsInformation:Construction,
  {3187e61f-f578-41bc-b001-aab35a781787}, !- Handle
  {4eac8111-654e-4afd-be1a-82e63e144498}, !- Construction Name
  ExteriorRoof,                           !- Intended Surface Type
  ASHRAE 189.1-2009;                      !- Standards Construction Type

OS:Material,
  {a6fbefdf-5a3b-483b-85b5-c22f94428736}, !- Handle
  Roof Insulation [25],                   !- Name
  MediumRough,                            !- Roughness
  0.263,                                  !- Thickness {m}
  0.049,                                  !- Conductivity {W/m-K}
  265,                                    !- Density {kg/m3}
  836.800000000001,                       !- Specific Heat {J/kg-K}
  0.9,                                    !- Thermal Absorptance
  0.7,                                    !- Solar Absorptance
  0.7;                                    !- Visible Absorptance

OS:Construction,
  {89e14b18-e8b8-4701-ac7e-8af0ce02cd5d}, !- Handle
  ASHRAE 189.1-2009 ExtRoof Metal ClimateZone 7-8, !- Name
  ,                                       !- Surface Rendering Name
  {bed288ae-9518-4f4b-9b68-007d657c17f8}, !- Layer 1
  {5cee8424-9b4a-4801-9905-8cc86f7c2ec6}; !- Layer 2

OS:StandardsInformation:Construction,
  {acc3ca0d-55e4-4b74-9e9c-da892430a5ec}, !- Handle
  {89e14b18-e8b8-4701-ac7e-8af0ce02cd5d}, !- Construction Name
  ExteriorRoof,                           !- Intended Surface Type
  ASHRAE 189.1-2009;                      !- Standards Construction Type

OS:Material,
  {5cee8424-9b4a-4801-9905-8cc86f7c2ec6}, !- Handle
  Roof Insulation [27],                   !- Name
  MediumRough,                            !- Roughness
  0.297000000000001,                      !- Thickness {m}
  0.049,                                  !- Conductivity {W/m-K}
  265,                                    !- Density {kg/m3}
  836.800000000001,                       !- Specific Heat {J/kg-K}
  0.9,                                    !- Thermal Absorptance
  0.7,                                    !- Solar Absorptance
  0.7;                                    !- Visible Absorptance

OS:Construction,
  {e3996866-a490-45c0-94c8-29f3a8b277a6}, !- Handle
  ASHRAE 189.1-2009 ExtWall Mass ClimateZone 1, !- Name
  ,                                       !- Surface Rendering Name
  {5380a112-a50e-448b-872b-a3d9abb2c331}, !- Layer 1
  {7aa51dee-2524-4db1-8c5a-7a4975102f81}, !- Layer 2
  {3891f587-b860-4df5-a344-9b607f475d37}, !- Layer 3
  {a50dc399-0463-4bd8-a994-2ff9e045d49f}; !- Layer 4

OS:StandardsInformation:Construction,
  {ec7c2869-bd50-4a7e-9176-ee80e17cff29}, !- Handle
  {e3996866-a490-45c0-94c8-29f3a8b277a6}, !- Construction Name
  ExteriorWall,                           !- Intended Surface Type
  ASHRAE 189.1-2009;                      !- Standards Construction Type

OS:Material,
  {5380a112-a50e-448b-872b-a3d9abb2c331}, !- Handle
  1IN Stucco,                             !- Name
  Smooth,                                 !- Roughness
  0.0253,                                 !- Thickness {m}
  0.691799999999999,                      !- Conductivity {W/m-K}
  1858,                                   !- Density {kg/m3}
  836.999999999999,                       !- Specific Heat {J/kg-K}
  0.9,                                    !- Thermal Absorptance
  0.92,                                   !- Solar Absorptance
  0.92;                                   !- Visible Absorptance

OS:Material,
  {7aa51dee-2524-4db1-8c5a-7a4975102f81}, !- Handle
  8IN Concrete HW,                        !- Name
  MediumRough,                            !- Roughness
  0.2033,                                 !- Thickness {m}
  1.72959999999999,                       !- Conductivity {W/m-K}
  2242.99999999999,                       !- Density {kg/m3}
  836.999999999999,                       !- Specific Heat {J/kg-K}
  0.9,                                    !- Thermal Absorptance
  0.65,                                   !- Solar Absorptance
  0.65;                                   !- Visible Absorptance

OS:Material,
  {3891f587-b860-4df5-a344-9b607f475d37}, !- Handle
  Wall Insulation [31],                   !- Name
  MediumRough,                            !- Roughness
  0.0337000000000001,                     !- Thickness {m}
  0.0432,                                 !- Conductivity {W/m-K}
  91,                                     !- Density {kg/m3}
  836.999999999999,                       !- Specific Heat {J/kg-K}
  0.9,                                    !- Thermal Absorptance
  0.5,                                    !- Solar Absorptance
  0.5;                                    !- Visible Absorptance

OS:Construction,
  {9f9f8388-923e-40e9-8542-795cae0d650c}, !- Handle
  ASHRAE 189.1-2009 ExtWall Mass ClimateZone 2, !- Name
  ,                                       !- Surface Rendering Name
  {5380a112-a50e-448b-872b-a3d9abb2c331}, !- Layer 1
  {7aa51dee-2524-4db1-8c5a-7a4975102f81}, !- Layer 2
  {ce8584ff-5716-4af3-a0d7-65761397a85a}, !- Layer 3
  {a50dc399-0463-4bd8-a994-2ff9e045d49f}; !- Layer 4

OS:StandardsInformation:Construction,
  {431cb2cb-094f-4f06-a618-41cd25751c91}, !- Handle
  {9f9f8388-923e-40e9-8542-795cae0d650c}, !- Construction Name
  ExteriorWall,                           !- Intended Surface Type
  ASHRAE 189.1-2009;                      !- Standards Construction Type

OS:Material,
  {ce8584ff-5716-4af3-a0d7-65761397a85a}, !- Handle
  Wall Insulation [35],                   !- Name
  MediumRough,                            !- Roughness
  0.0452,                                 !- Thickness {m}
  0.0432,                                 !- Conductivity {W/m-K}
  91,                                     !- Density {kg/m3}
  836.999999999999,                       !- Specific Heat {J/kg-K}
  0.9,                                    !- Thermal Absorptance
  0.5,                                    !- Solar Absorptance
  0.5;                                    !- Visible Absorptance

OS:Construction,
  {0c899945-d2f7-453f-a87e-36ef5a2c7738}, !- Handle
  ASHRAE 189.1-2009 ExtWall Mass ClimateZone 3, !- Name
  ,                                       !- Surface Rendering Name
  {5380a112-a50e-448b-872b-a3d9abb2c331}, !- Layer 1
  {7aa51dee-2524-4db1-8c5a-7a4975102f81}, !- Layer 2
  {7cce623d-e568-41ca-9daa-4f33cd1b6e3c}, !- Layer 3
  {a50dc399-0463-4bd8-a994-2ff9e045d49f}; !- Layer 4

OS:StandardsInformation:Construction,
  {7d87062e-c67a-49df-9bb0-b302d10aa053}, !- Handle
  {0c899945-d2f7-453f-a87e-36ef5a2c7738}, !- Construction Name
  ExteriorWall,                           !- Intended Surface Type
  ASHRAE 189.1-2009;                      !- Standards Construction Type

OS:Material,
  {7cce623d-e568-41ca-9daa-4f33cd1b6e3c}, !- Handle
  Wall Insulation [36],                   !- Name
  MediumRough,                            !- Roughness
  0.0565999999999999,                     !- Thickness {m}
  0.0432,                                 !- Conductivity {W/m-K}
  91,                                     !- Density {kg/m3}
  836.999999999999,                       !- Specific Heat {J/kg-K}
  0.9,                                    !- Thermal Absorptance
  0.5,                                    !- Solar Absorptance
  0.5;                                    !- Visible Absorptance

OS:Construction,
  {f912e58d-e896-4b3c-8b81-f3567731b6fc}, !- Handle
  ASHRAE 189.1-2009 ExtWall Mass ClimateZone 4, !- Name
  ,                                       !- Surface Rendering Name
  {5380a112-a50e-448b-872b-a3d9abb2c331}, !- Layer 1
  {7aa51dee-2524-4db1-8c5a-7a4975102f81}, !- Layer 2
  {fd8a4c07-e238-48b5-bd6a-93d6f299832c}, !- Layer 3
  {a50dc399-0463-4bd8-a994-2ff9e045d49f}; !- Layer 4

OS:StandardsInformation:Construction,
  {16e79eb4-c58d-45c7-8177-2faa041740bf}, !- Handle
  {f912e58d-e896-4b3c-8b81-f3567731b6fc}, !- Construction Name
  ExteriorWall,                           !- Intended Surface Type
  ASHRAE 189.1-2009;                      !- Standards Construction Type

OS:Material,
  {fd8a4c07-e238-48b5-bd6a-93d6f299832c}, !- Handle
  Wall Insulation [37],                   !- Name
  MediumRough,                            !- Roughness
  0.0680999999999999,                     !- Thickness {m}
  0.0432,                                 !- Conductivity {W/m-K}
  91,                                     !- Density {kg/m3}
  836.999999999999,                       !- Specific Heat {J/kg-K}
  0.9,                                    !- Thermal Absorptance
  0.5,                                    !- Solar Absorptance
  0.5;                                    !- Visible Absorptance

OS:Construction,
  {4816ca98-6a7f-4e69-aece-e06305f08ea8}, !- Handle
  ASHRAE 189.1-2009 ExtWall Mass ClimateZone 5, !- Name
  ,                                       !- Surface Rendering Name
  {5380a112-a50e-448b-872b-a3d9abb2c331}, !- Layer 1
  {7aa51dee-2524-4db1-8c5a-7a4975102f81}, !- Layer 2
  {883a1f9e-9f67-4278-a053-baf1351c3338}, !- Layer 3
  {a50dc399-0463-4bd8-a994-2ff9e045d49f}; !- Layer 4

OS:StandardsInformation:Construction,
  {c9d3aa11-3182-4d8d-bb02-8e1e7d05963c}, !- Handle
  {4816ca98-6a7f-4e69-aece-e06305f08ea8}, !- Construction Name
  ExteriorWall,                           !- Intended Surface Type
  ASHRAE 189.1-2009;                      !- Standards Construction Type

OS:Material,
  {883a1f9e-9f67-4278-a053-baf1351c3338}, !- Handle
  Wall Insulation [40],                   !- Name
  MediumRough,                            !- Roughness
  0.0793999999999999,                     !- Thickness {m}
  0.0432,                                 !- Conductivity {W/m-K}
  91,                                     !- Density {kg/m3}
  836.999999999999,                       !- Specific Heat {J/kg-K}
  0.9,                                    !- Thermal Absorptance
  0.5,                                    !- Solar Absorptance
  0.5;                                    !- Visible Absorptance

OS:Construction,
  {a372fbbd-933f-44da-9128-0fa5715c3c40}, !- Handle
  ASHRAE 189.1-2009 ExtWall Mass ClimateZone 6, !- Name
  ,                                       !- Surface Rendering Name
  {5380a112-a50e-448b-872b-a3d9abb2c331}, !- Layer 1
  {7aa51dee-2524-4db1-8c5a-7a4975102f81}, !- Layer 2
  {2a691ac7-970f-4a13-9cfa-a40532d93efd}, !- Layer 3
  {a50dc399-0463-4bd8-a994-2ff9e045d49f}; !- Layer 4

OS:StandardsInformation:Construction,
  {b52376d8-8da5-483c-9826-526aea3c5d11}, !- Handle
  {a372fbbd-933f-44da-9128-0fa5715c3c40}, !- Construction Name
  ExteriorWall,                           !- Intended Surface Type
  ASHRAE 189.1-2009;                      !- Standards Construction Type

OS:Material,
  {2a691ac7-970f-4a13-9cfa-a40532d93efd}, !- Handle
  Wall Insulation [42],                   !- Name
  MediumRough,                            !- Roughness
  0.0913999999999999,                     !- Thickness {m}
  0.0432,                                 !- Conductivity {W/m-K}
  91,                                     !- Density {kg/m3}
  836.999999999999,                       !- Specific Heat {J/kg-K}
  0.9,                                    !- Thermal Absorptance
  0.5,                                    !- Solar Absorptance
  0.5;                                    !- Visible Absorptance

OS:Construction,
  {6dbb919e-70c8-4b4d-b105-b07c366dbbda}, !- Handle
  ASHRAE 189.1-2009 ExtWall Mass ClimateZone 7-8, !- Name
  ,                                       !- Surface Rendering Name
  {5380a112-a50e-448b-872b-a3d9abb2c331}, !- Layer 1
  {7aa51dee-2524-4db1-8c5a-7a4975102f81}, !- Layer 2
  {51bc5a61-7d1e-436d-82da-107a619df630}, !- Layer 3
  {a50dc399-0463-4bd8-a994-2ff9e045d49f}; !- Layer 4

OS:StandardsInformation:Construction,
  {77cb48e8-4d8a-4e6c-bb9d-a0e320471ddd}, !- Handle
  {6dbb919e-70c8-4b4d-b105-b07c366dbbda}, !- Construction Name
  ExteriorWall,                           !- Intended Surface Type
  ASHRAE 189.1-2009;                      !- Standards Construction Type

OS:Material,
  {51bc5a61-7d1e-436d-82da-107a619df630}, !- Handle
  Wall Insulation [44],                   !- Name
  MediumRough,                            !- Roughness
  0.1104,                                 !- Thickness {m}
  0.0432,                                 !- Conductivity {W/m-K}
  91,                                     !- Density {kg/m3}
  836.999999999999,                       !- Specific Heat {J/kg-K}
  0.9,                                    !- Thermal Absorptance
  0.5,                                    !- Solar Absorptance
  0.5;                                    !- Visible Absorptance

OS:Construction,
  {61a23fd0-269e-4ec0-be45-89b9917e84f5}, !- Handle
  ASHRAE 189.1-2009 ExtWall Mass ClimateZone alt-res 1, !- Name
  ,                                       !- Surface Rendering Name
  {5380a112-a50e-448b-872b-a3d9abb2c331}, !- Layer 1
  {7aa51dee-2524-4db1-8c5a-7a4975102f81}, !- Layer 2
  {ce8584ff-5716-4af3-a0d7-65761397a85a}, !- Layer 3
  {a50dc399-0463-4bd8-a994-2ff9e045d49f}; !- Layer 4

OS:StandardsInformation:Construction,
  {1e2f14bc-ef5d-4dc5-93ca-6d674654bf68}, !- Handle
  {61a23fd0-269e-4ec0-be45-89b9917e84f5}, !- Construction Name
  ExteriorWall,                           !- Intended Surface Type
  ASHRAE 189.1-2009;                      !- Standards Construction Type

OS:Construction,
  {ef0a1669-da51-4e70-afe1-46d4210aec82}, !- Handle
  ASHRAE 189.1-2009 ExtWall Mass ClimateZone alt-res 2, !- Name
  ,                                       !- Surface Rendering Name
  {5380a112-a50e-448b-872b-a3d9abb2c331}, !- Layer 1
  {7aa51dee-2524-4db1-8c5a-7a4975102f81}, !- Layer 2
  {7cce623d-e568-41ca-9daa-4f33cd1b6e3c}, !- Layer 3
  {a50dc399-0463-4bd8-a994-2ff9e045d49f}; !- Layer 4

OS:StandardsInformation:Construction,
  {d3bbdf98-ae3a-4093-930e-367a7c206194}, !- Handle
  {ef0a1669-da51-4e70-afe1-46d4210aec82}, !- Construction Name
  ExteriorWall,                           !- Intended Surface Type
  ASHRAE 189.1-2009;                      !- Standards Construction Type

OS:Construction,
  {72aa0fbe-4da3-40d4-a89b-ec33cf6e7bbc}, !- Handle
  ASHRAE 189.1-2009 ExtWall Mass ClimateZone alt-res 3, !- Name
  ,                                       !- Surface Rendering Name
  {5380a112-a50e-448b-872b-a3d9abb2c331}, !- Layer 1
  {7aa51dee-2524-4db1-8c5a-7a4975102f81}, !- Layer 2
  {fd8a4c07-e238-48b5-bd6a-93d6f299832c}, !- Layer 3
  {a50dc399-0463-4bd8-a994-2ff9e045d49f}; !- Layer 4

OS:StandardsInformation:Construction,
  {4ddb46ad-122c-4192-a5cb-83a23a637d6e}, !- Handle
  {72aa0fbe-4da3-40d4-a89b-ec33cf6e7bbc}, !- Construction Name
  ExteriorWall,                           !- Intended Surface Type
  ASHRAE 189.1-2009;                      !- Standards Construction Type

OS:Construction,
  {ba1ddfdd-d17f-4f10-9a93-a1242c90a0e2}, !- Handle
  ASHRAE 189.1-2009 ExtWall Mass ClimateZone alt-res 4, !- Name
  ,                                       !- Surface Rendering Name
  {5380a112-a50e-448b-872b-a3d9abb2c331}, !- Layer 1
  {7aa51dee-2524-4db1-8c5a-7a4975102f81}, !- Layer 2
  {883a1f9e-9f67-4278-a053-baf1351c3338}, !- Layer 3
  {a50dc399-0463-4bd8-a994-2ff9e045d49f}; !- Layer 4

OS:StandardsInformation:Construction,
  {5b0732d5-cfd9-4211-864d-0bb3cff7813d}, !- Handle
  {ba1ddfdd-d17f-4f10-9a93-a1242c90a0e2}, !- Construction Name
  ExteriorWall,                           !- Intended Surface Type
  ASHRAE 189.1-2009;                      !- Standards Construction Type

OS:Construction,
  {f37b9043-a07f-4058-9d20-ab0eddd21193}, !- Handle
  ASHRAE 189.1-2009 ExtWall Mass ClimateZone alt-res 5, !- Name
  ,                                       !- Surface Rendering Name
  {5380a112-a50e-448b-872b-a3d9abb2c331}, !- Layer 1
  {7aa51dee-2524-4db1-8c5a-7a4975102f81}, !- Layer 2
  {2a691ac7-970f-4a13-9cfa-a40532d93efd}, !- Layer 3
  {a50dc399-0463-4bd8-a994-2ff9e045d49f}; !- Layer 4

OS:StandardsInformation:Construction,
  {de6071ef-f078-4186-bcd9-62c0d1fb3bce}, !- Handle
  {f37b9043-a07f-4058-9d20-ab0eddd21193}, !- Construction Name
  ExteriorWall,                           !- Intended Surface Type
  ASHRAE 189.1-2009;                      !- Standards Construction Type

OS:Construction,
  {95846749-0837-4dd2-a3de-4dc6d3d76731}, !- Handle
  ASHRAE 189.1-2009 ExtWall Mass ClimateZone alt-res 6, !- Name
  ,                                       !- Surface Rendering Name
  {5380a112-a50e-448b-872b-a3d9abb2c331}, !- Layer 1
  {7aa51dee-2524-4db1-8c5a-7a4975102f81}, !- Layer 2
  {51bc5a61-7d1e-436d-82da-107a619df630}, !- Layer 3
  {a50dc399-0463-4bd8-a994-2ff9e045d49f}; !- Layer 4

OS:StandardsInformation:Construction,
  {2075da3f-2654-47ab-8e40-70e2c59ff03b}, !- Handle
  {95846749-0837-4dd2-a3de-4dc6d3d76731}, !- Construction Name
  ExteriorWall,                           !- Intended Surface Type
  ASHRAE 189.1-2009;                      !- Standards Construction Type

OS:Construction,
  {8d33a0e4-f26a-461e-b97f-df55cd5b2b77}, !- Handle
  ASHRAE 189.1-2009 ExtWall Mass ClimateZone alt-res 7, !- Name
  ,                                       !- Surface Rendering Name
  {5380a112-a50e-448b-872b-a3d9abb2c331}, !- Layer 1
  {7aa51dee-2524-4db1-8c5a-7a4975102f81}, !- Layer 2
  {51bc5a61-7d1e-436d-82da-107a619df630}, !- Layer 3
  {a50dc399-0463-4bd8-a994-2ff9e045d49f}; !- Layer 4

OS:StandardsInformation:Construction,
  {1ed20dc5-c05f-4fd6-827e-f958fb9d8cb4}, !- Handle
  {8d33a0e4-f26a-461e-b97f-df55cd5b2b77}, !- Construction Name
  ExteriorWall,                           !- Intended Surface Type
  ASHRAE 189.1-2009;                      !- Standards Construction Type

OS:Construction,
  {643d200a-de96-430d-9cc0-f5ace5da7c97}, !- Handle
  ASHRAE 189.1-2009 ExtWall Mass ClimateZone alt-res 8, !- Name