
OS:Version,
  {10fa2e60-5c6c-4383-a8af-9a92ff1dc7e9}, !- Handle
  2.3.0;                                  !- Version Identifier

OS:Construction,
  {ca78f6d5-3db7-423d-9436-40d54e022230}, !- Handle
  ASHRAE 189.1-2009 AtticFloor ClimateZone 1-8, !- Name
  ,                                       !- Surface Rendering Name
  {403da8f4-4045-41c6-b72a-1d0bf723eb7c}, !- Layer 1
  {c41acd5a-88eb-42af-b1b9-499e5f7e8d40}, !- Layer 2
  {403da8f4-4045-41c6-b72a-1d0bf723eb7c}; !- Layer 3

OS:StandardsInformation:Construction,
  {3f6220e8-ef71-4ee1-9b18-0b7a5dc4abbf}, !- Handle
  {ca78f6d5-3db7-423d-9436-40d54e022230}, !- Construction Name
  AtticFloor,                             !- Intended Surface Type
  WoodFramed,                             !- Standards Construction Type
  ,                                       !- Perturbable Layer
  ,                                       !- Perturbable Layer Type
  ,                                       !- Other Perturbable Layer Type
  ASHRAE 189.1-2009;                      !- Construction Standard

OS:Material,
  {403da8f4-4045-41c6-b72a-1d0bf723eb7c}, !- Handle
  1/2IN Gypsum,                           !- Name
  Smooth,                                 !- Roughness
  0.0127,                                 !- Thickness {m}
  0.16,                                   !- Conductivity {W/m-K}
  784.9,                                  !- Density {kg/m3}
  830.000000000001,                       !- Specific Heat {J/kg-K}
  0.9,                                    !- Thermal Absorptance
  0.4,                                    !- Solar Absorptance
  0.4;                                    !- Visible Absorptance

OS:StandardsInformation:Material,
  {3a492946-c78d-49a9-8cf0-4393fc463ae8}, !- Handle
  {403da8f4-4045-41c6-b72a-1d0bf723eb7c}; !- Material Name

OS:Material,
  {c41acd5a-88eb-42af-b1b9-499e5f7e8d40}, !- Handle
  AtticFloor Insulation,                  !- Name
  MediumRough,                            !- Roughness
  0.2379,                                 !- Thickness {m}
  0.049,                                  !- Conductivity {W/m-K}
  265,                                    !- Density {kg/m3}
  836.800000000001,                       !- Specific Heat {J/kg-K}
  0.9,                                    !- Thermal Absorptance
  0.7,                                    !- Solar Absorptance
  0.7;                                    !- Visible Absorptance

OS:StandardsInformation:Material,
  {6fe77fff-2e4e-489b-9b6a-76d6a41725fa}, !- Handle
  {c41acd5a-88eb-42af-b1b9-499e5f7e8d40}; !- Material Name

OS:Construction,
  {37c6c2a9-d11b-4cf5-8eb8-02257f6a4889}, !- Handle
  ASHRAE 189.1-2009 ExtRoof IEAD ClimateZone 1, !- Name
  ,                                       !- Surface Rendering Name
  {37ae21cf-42fa-4c42-9975-164ecefab927}, !- Layer 1
  {3df983d8-3601-4aff-a038-ad37aa8a70fe}, !- Layer 2
  {1133edeb-e490-4112-a21a-705c8f99b5ec}; !- Layer 3

OS:StandardsInformation:Construction,
  {d031a611-8207-441f-93cc-8cdc6fe034ae}, !- Handle
  {37c6c2a9-d11b-4cf5-8eb8-02257f6a4889}, !- Construction Name
  ExteriorRoof,                           !- Intended Surface Type
  IEAD,                                   !- Standards Construction Type
  ,                                       !- Perturbable Layer
  ,                                       !- Perturbable Layer Type
  ,                                       !- Other Perturbable Layer Type
  ASHRAE 189.1-2009;                      !- Construction Standard

OS:Material,
  {37ae21cf-42fa-4c42-9975-164ecefab927}, !- Handle
  Roof Membrane,                          !- Name
  VeryRough,                              !- Roughness
  0.0095,                                 !- Thickness {m}
  0.16,                                   !- Conductivity {W/m-K}
  1121.29,                                !- Density {kg/m3}
  1460,                                   !- Specific Heat {J/kg-K}
  0.9,                                    !- Thermal Absorptance
  0.7,                                    !- Solar Absorptance
  0.7;                                    !- Visible Absorptance

OS:StandardsInformation:Material,
  {3b1b3cee-6dac-447b-b516-40614eca9fa7}, !- Handle
  {37ae21cf-42fa-4c42-9975-164ecefab927}; !- Material Name

OS:Material,
  {3df983d8-3601-4aff-a038-ad37aa8a70fe}, !- Handle
  Roof Insulation [18],                   !- Name
  MediumRough,                            !- Roughness
  0.1693,                                 !- Thickness {m}
  0.049,                                  !- Conductivity {W/m-K}
  265,                                    !- Density {kg/m3}
  836.800000000001,                       !- Specific Heat {J/kg-K}
  0.9,                                    !- Thermal Absorptance
  0.7,                                    !- Solar Absorptance
  0.7;                                    !- Visible Absorptance

OS:StandardsInformation:Material,
  {d6ab15a2-d264-471f-aa65-003991dc9357}, !- Handle
  {3df983d8-3601-4aff-a038-ad37aa8a70fe}; !- Material Name

OS:Material,
  {1133edeb-e490-4112-a21a-705c8f99b5ec}, !- Handle
  Metal Decking,                          !- Name
  MediumSmooth,                           !- Roughness
  0.0015,                                 !- Thickness {m}
  45.006,                                 !- Conductivity {W/m-K}
  7680,                                   !- Density {kg/m3}
  418.4,                                  !- Specific Heat {J/kg-K}
  0.9,                                    !- Thermal Absorptance
  0.6,                                    !- Solar Absorptance
  0.6;                                    !- Visible Absorptance

OS:StandardsInformation:Material,
  {1d14d64e-9297-4be4-9d18-bd5c0e4a811c}, !- Handle
  {1133edeb-e490-4112-a21a-705c8f99b5ec}; !- Material Name

OS:Construction,
  {e1af12cc-4fa4-4f8d-8493-9ed25c4b8031}, !- Handle
  ASHRAE 189.1-2009 ExtRoof IEAD ClimateZone 2-5, !- Name
  ,                                       !- Surface Rendering Name
  {37ae21cf-42fa-4c42-9975-164ecefab927}, !- Layer 1
  {e865dc4d-d1b0-4736-a145-a57af2e5e1ba}, !- Layer 2
  {1133edeb-e490-4112-a21a-705c8f99b5ec}; !- Layer 3

OS:StandardsInformation:Construction,
  {2d88c46d-994f-4147-9eb8-a5797235df94}, !- Handle
  {e1af12cc-4fa4-4f8d-8493-9ed25c4b8031}, !- Construction Name
  ExteriorRoof,                           !- Intended Surface Type
  IEAD,                                   !- Standards Construction Type
  ,                                       !- Perturbable Layer
  ,                                       !- Perturbable Layer Type
  ,                                       !- Other Perturbable Layer Type
  ASHRAE 189.1-2009;                      !- Construction Standard

OS:Material,
  {e865dc4d-d1b0-4736-a145-a57af2e5e1ba}, !- Handle
  Roof Insulation [21],                   !- Name
  MediumRough,                            !- Roughness
  0.2105,                                 !- Thickness {m}
  0.049,                                  !- Conductivity {W/m-K}
  265,                                    !- Density {kg/m3}
  836.800000000001,                       !- Specific Heat {J/kg-K}
  0.9,                                    !- Thermal Absorptance
  0.7,                                    !- Solar Absorptance
  0.7;                                    !- Visible Absorptance

OS:StandardsInformation:Material,
  {1756980e-0a46-452e-a659-1af570437486}, !- Handle
  {e865dc4d-d1b0-4736-a145-a57af2e5e1ba}; !- Material Name

OS:Construction,
  {82397a81-dfc3-4ec1-9512-bb2038d902a5}, !- Handle
  ASHRAE 189.1-2009 ExtRoof IEAD ClimateZone 6, !- Name
  ,                                       !- Surface Rendering Name
  {37ae21cf-42fa-4c42-9975-164ecefab927}, !- Layer 1
  {52e41d52-1c6a-4cf6-944f-9f27e22cbed2}, !- Layer 2
  {1133edeb-e490-4112-a21a-705c8f99b5ec}; !- Layer 3

OS:StandardsInformation:Construction,
  {8ddc2b5e-8561-4fca-9b16-408a3cfde419}, !- Handle
  {82397a81-dfc3-4ec1-9512-bb2038d902a5}, !- Construction Name
  ExteriorRoof,                           !- Intended Surface Type
  IEAD,                                   !- Standards Construction Type
  ,                                       !- Perturbable Layer
  ,                                       !- Perturbable Layer Type
  ,                                       !- Other Perturbable Layer Type
  ASHRAE 189.1-2009;                      !- Construction Standard

OS:Material,
  {52e41d52-1c6a-4cf6-944f-9f27e22cbed2}, !- Handle
  Roof Insulation [24],                   !- Name
  MediumRough,                            !- Roughness
  0.260100000000001,                      !- Thickness {m}
  0.049,                                  !- Conductivity {W/m-K}
  265,                                    !- Density {kg/m3}
  836.800000000001,                       !- Specific Heat {J/kg-K}
  0.9,                                    !- Thermal Absorptance
  0.7,                                    !- Solar Absorptance
  0.7;                                    !- Visible Absorptance

OS:StandardsInformation:Material,
  {001ffd16-fbf9-4f06-805b-89907cbeac2a}, !- Handle
  {52e41d52-1c6a-4cf6-944f-9f27e22cbed2}; !- Material Name

OS:Construction,
  {14885395-c255-4c17-9ff4-6ff19912f755}, !- Handle
  ASHRAE 189.1-2009 ExtRoof IEAD ClimateZone 7-8, !- Name
  ,                                       !- Surface Rendering Name
  {37ae21cf-42fa-4c42-9975-164ecefab927}, !- Layer 1
  {991d6833-23ad-4e5a-8221-8644fc79eab7}, !- Layer 2
  {1133edeb-e490-4112-a21a-705c8f99b5ec}; !- Layer 3

OS:StandardsInformation:Construction,
  {6cd980a1-ed8e-4101-944a-2eaeb1ba4f45}, !- Handle
  {14885395-c255-4c17-9ff4-6ff19912f755}, !- Construction Name
  ExteriorRoof,                           !- Intended Surface Type
  IEAD,                                   !- Standards Construction Type
  ,                                       !- Perturbable Layer
  ,                                       !- Perturbable Layer Type
  ,                                       !- Other Perturbable Layer Type
  ASHRAE 189.1-2009;                      !- Construction Standard

OS:Material,
  {991d6833-23ad-4e5a-8221-8644fc79eab7}, !- Handle
  Roof Insulation [26],                   !- Name
  MediumRough,                            !- Roughness
  0.2941,                                 !- Thickness {m}
  0.049,                                  !- Conductivity {W/m-K}
  265,                                    !- Density {kg/m3}
  836.800000000001,                       !- Specific Heat {J/kg-K}
  0.9,                                    !- Thermal Absorptance
  0.7,                                    !- Solar Absorptance
  0.7;                                    !- Visible Absorptance

OS:StandardsInformation:Material,
  {3da3b0be-73f9-4e53-9334-0312997a8848}, !- Handle
  {991d6833-23ad-4e5a-8221-8644fc79eab7}; !- Material Name

OS:Construction,
  {ce919313-686c-46cf-b451-6053f9836844}, !- Handle
  ASHRAE 189.1-2009 ExtRoof Metal ClimateZone 1, !- Name
  ,                                       !- Surface Rendering Name
  {e7b2f9bc-1029-41d7-bfe8-694a65de5bf6}, !- Layer 1
  {b3b9cfeb-5696-4088-a6ec-a653f81822fe}, !- Layer 2
  {1133edeb-e490-4112-a21a-705c8f99b5ec}; !- Layer 3

OS:StandardsInformation:Construction,
  {57b2e047-0e5f-4f26-b9e5-c46df57fc3e1}, !- Handle
  {ce919313-686c-46cf-b451-6053f9836844}, !- Construction Name
  ExteriorRoof,                           !- Intended Surface Type
  Metal,                                  !- Standards Construction Type
  ,                                       !- Perturbable Layer
  ,                                       !- Perturbable Layer Type
  ,                                       !- Other Perturbable Layer Type
  ASHRAE 189.1-2009;                      !- Construction Standard

OS:Material,
  {e7b2f9bc-1029-41d7-bfe8-694a65de5bf6}, !- Handle
  Metal Roofing,                          !- Name
  MediumSmooth,                           !- Roughness
  0.0015,                                 !- Thickness {m}
  45.006,                                 !- Conductivity {W/m-K}
  7680,                                   !- Density {kg/m3}
  418.4,                                  !- Specific Heat {J/kg-K}
  0.9,                                    !- Thermal Absorptance
  0.6,                                    !- Solar Absorptance
  0.6;                                    !- Visible Absorptance

OS:StandardsInformation:Material,
  {b47cce87-2347-48a0-a7b1-09640b0d3d75}, !- Handle
  {e7b2f9bc-1029-41d7-bfe8-694a65de5bf6}; !- Material Name

OS:Material,
  {b3b9cfeb-5696-4088-a6ec-a653f81822fe}, !- Handle
  Roof Insulation [19],                   !- Name
  MediumRough,                            !- Roughness
  0.1868,                                 !- Thickness {m}
  0.049,                                  !- Conductivity {W/m-K}
  265,                                    !- Density {kg/m3}
  836.800000000001,                       !- Specific Heat {J/kg-K}
  0.9,                                    !- Thermal Absorptance
  0.7,                                    !- Solar Absorptance
  0.7;                                    !- Visible Absorptance

OS:StandardsInformation:Material,
  {1b4708ec-0878-4443-abbd-d8ff582de694}, !- Handle
  {b3b9cfeb-5696-4088-a6ec-a653f81822fe}; !- Material Name

OS:Construction,
  {04457e08-f41f-40ca-809d-aff3cd724fa0}, !- Handle
  ASHRAE 189.1-2009 ExtRoof Metal ClimateZone 2-5, !- Name
  ,                                       !- Surface Rendering Name
  {e7b2f9bc-1029-41d7-bfe8-694a65de5bf6}, !- Layer 1
  {007274dc-c4d3-440e-98fc-0835194bac76}, !- Layer 2
  {1133edeb-e490-4112-a21a-705c8f99b5ec}; !- Layer 3

OS:StandardsInformation:Construction,
  {83ff759b-0875-4349-bc28-5fde2f31ed27}, !- Handle
  {04457e08-f41f-40ca-809d-aff3cd724fa0}, !- Construction Name
  ExteriorRoof,                           !- Intended Surface Type
  Metal,                                  !- Standards Construction Type
  ,                                       !- Perturbable Layer
  ,                                       !- Perturbable Layer Type
  ,                                       !- Other Perturbable Layer Type
  ASHRAE 189.1-2009;                      !- Construction Standard

OS:Material,
  {007274dc-c4d3-440e-98fc-0835194bac76}, !- Handle
  Roof Insulation [22],                   !- Name
  MediumRough,                            !- Roughness
  0.2358,                                 !- Thickness {m}
  0.049,                                  !- Conductivity {W/m-K}
  265,                                    !- Density {kg/m3}
  836.800000000001,                       !- Specific Heat {J/kg-K}
  0.9,                                    !- Thermal Absorptance
  0.7,                                    !- Solar Absorptance
  0.7;                                    !- Visible Absorptance

OS:StandardsInformation:Material,
  {3278b279-af87-441f-95ae-f1055c3e4f6d}, !- Handle
  {007274dc-c4d3-440e-98fc-0835194bac76}; !- Material Name

OS:Construction,
  {e322d3b0-2ff2-4cfe-95b3-b920129c2afb}, !- Handle
  ASHRAE 189.1-2009 ExtRoof Metal ClimateZone 6, !- Name
  ,                                       !- Surface Rendering Name
  {e7b2f9bc-1029-41d7-bfe8-694a65de5bf6}, !- Layer 1
  {57d6dc9d-dfe4-438d-b50e-74e98a78a2fd}, !- Layer 2
  {1133edeb-e490-4112-a21a-705c8f99b5ec}; !- Layer 3

OS:StandardsInformation:Construction,
  {c6637987-4903-43db-b89f-a8ded4ab612d}, !- Handle
  {e322d3b0-2ff2-4cfe-95b3-b920129c2afb}, !- Construction Name
  ExteriorRoof,                           !- Intended Surface Type
  Metal,                                  !- Standards Construction Type
  ,                                       !- Perturbable Layer
  ,                                       !- Perturbable Layer Type
  ,                                       !- Other Perturbable Layer Type
  ASHRAE 189.1-2009;                      !- Construction Standard

OS:Material,
  {57d6dc9d-dfe4-438d-b50e-74e98a78a2fd}, !- Handle
  Roof Insulation [25],                   !- Name
  MediumRough,                            !- Roughness
  0.263,                                  !- Thickness {m}
  0.049,                                  !- Conductivity {W/m-K}
  265,                                    !- Density {kg/m3}
  836.800000000001,                       !- Specific Heat {J/kg-K}
  0.9,                                    !- Thermal Absorptance
  0.7,                                    !- Solar Absorptance
  0.7;                                    !- Visible Absorptance

OS:StandardsInformation:Material,
  {133ac55d-d126-4139-8365-d4e9dc6fbe37}, !- Handle
  {57d6dc9d-dfe4-438d-b50e-74e98a78a2fd}; !- Material Name

OS:Construction,
  {29403f1e-f197-4828-b107-21d0f028f5cc}, !- Handle
  ASHRAE 189.1-2009 ExtRoof Metal ClimateZone 7-8, !- Name
  ,                                       !- Surface Rendering Name
  {e7b2f9bc-1029-41d7-bfe8-694a65de5bf6}, !- Layer 1
  {dcc4b3f0-c604-4d2a-92ae-08d256b1529c}, !- Layer 2
  {1133edeb-e490-4112-a21a-705c8f99b5ec}; !- Layer 3

OS:StandardsInformation:Construction,
  {a6b112ca-198e-499b-8a0a-73a42c986333}, !- Handle
  {29403f1e-f197-4828-b107-21d0f028f5cc}, !- Construction Name
  ExteriorRoof,                           !- Intended Surface Type
  Metal,                                  !- Standards Construction Type
  ,                                       !- Perturbable Layer
  ,                                       !- Perturbable Layer Type
  ,                                       !- Other Perturbable Layer Type
  ASHRAE 189.1-2009;                      !- Construction Standard

OS:Material,
  {dcc4b3f0-c604-4d2a-92ae-08d256b1529c}, !- Handle
  Roof Insulation [27],                   !- Name
  MediumRough,                            !- Roughness
  0.297000000000001,                      !- Thickness {m}
  0.049,                                  !- Conductivity {W/m-K}
  265,                                    !- Density {kg/m3}
  836.800000000001,                       !- Specific Heat {J/kg-K}
  0.9,                                    !- Thermal Absorptance
  0.7,                                    !- Solar Absorptance
  0.7;                                    !- Visible Absorptance

OS:StandardsInformation:Material,
  {bc832472-86aa-49a4-bf11-289b2939c26c}, !- Handle
  {dcc4b3f0-c604-4d2a-92ae-08d256b1529c}; !- Material Name

OS:Construction,
  {ba3a644d-4f10-4fcd-afe3-dd7128fb2a60}, !- Handle
  ASHRAE 189.1-2009 ExtWall Mass ClimateZone 1, !- Name
  ,                                       !- Surface Rendering Name
  {07ca7755-b7ae-45dd-a685-c8bad4152b23}, !- Layer 1
  {1fb5928a-348b-43ab-8b64-ffe6293a4afd}, !- Layer 2
  {25c5e52d-c879-4c40-b863-729f4b1e9d7e}, !- Layer 3
  {403da8f4-4045-41c6-b72a-1d0bf723eb7c}; !- Layer 4

OS:StandardsInformation:Construction,
  {f24b64c3-dfb8-40ff-b1bc-ec789f4d7c59}, !- Handle
  {ba3a644d-4f10-4fcd-afe3-dd7128fb2a60}, !- Construction Name
  ExteriorWall,                           !- Intended Surface Type
  Mass,                                   !- Standards Construction Type
  ,                                       !- Perturbable Layer
  ,                                       !- Perturbable Layer Type
  ,                                       !- Other Perturbable Layer Type
  ASHRAE 189.1-2009;                      !- Construction Standard

OS:Material,
  {07ca7755-b7ae-45dd-a685-c8bad4152b23}, !- Handle
  1IN Stucco,                             !- Name
  Smooth,                                 !- Roughness
  0.0253,                                 !- Thickness {m}
  0.691799999999999,                      !- Conductivity {W/m-K}
  1858,                                   !- Density {kg/m3}
  836.999999999999,                       !- Specific Heat {J/kg-K}
  0.9,                                    !- Thermal Absorptance
  0.92,                                   !- Solar Absorptance
  0.92;                                   !- Visible Absorptance

OS:StandardsInformation:Material,
  {6d3d4af2-1ed6-4d40-bc68-78a4261cf821}, !- Handle
  {07ca7755-b7ae-45dd-a685-c8bad4152b23}; !- Material Name

OS:Material,
  {1fb5928a-348b-43ab-8b64-ffe6293a4afd}, !- Handle
  8IN Concrete HW,                        !- Name
  MediumRough,                            !- Roughness
  0.2033,                                 !- Thickness {m}
  1.72959999999999,                       !- Conductivity {W/m-K}
  2242.99999999999,                       !- Density {kg/m3}
  836.999999999999,                       !- Specific Heat {J/kg-K}
  0.9,                                    !- Thermal Absorptance
  0.65,                                   !- Solar Absorptance
  0.65;                                   !- Visible Absorptance

OS:StandardsInformation:Material,
  {806c88f1-3534-4e93-8871-4d821aaabb99}, !- Handle
  {1fb5928a-348b-43ab-8b64-ffe6293a4afd}; !- Material Name

OS:Material,
  {25c5e52d-c879-4c40-b863-729f4b1e9d7e}, !- Handle
  Wall Insulation [31],                   !- Name
  MediumRough,                            !- Roughness
  0.0337000000000001,                     !- Thickness {m}
  0.0432,                                 !- Conductivity {W/m-K}
  91,                                     !- Density {kg/m3}
  836.999999999999,                       !- Specific Heat {J/kg-K}
  0.9,                                    !- Thermal Absorptance
  0.5,                                    !- Solar Absorptance
  0.5;                                    !- Visible Absorptance

OS:StandardsInformation:Material,
  {46c45871-d5de-47f8-887f-7cef1c35cc44}, !- Handle
  {25c5e52d-c879-4c40-b863-729f4b1e9d7e}; !- Material Name

OS:Construction,
  {4894487b-3a7d-497e-b92a-85791f66026a}, !- Handle
  ASHRAE 189.1-2009 ExtWall Mass ClimateZone 2, !- Name
  ,                                       !- Surface Rendering Name
  {07ca7755-b7ae-45dd-a685-c8bad4152b23}, !- Layer 1
  {1fb5928a-348b-43ab-8b64-ffe6293a4afd}, !- Layer 2
  {874da183-4167-4b11-aa3c-0c56e5395287}, !- Layer 3
  {403da8f4-4045-41c6-b72a-1d0bf723eb7c}; !- Layer 4

OS:StandardsInformation:Construction,
  {6c7f8478-1b92-405d-9ab7-9c3897b64eca}, !- Handle
  {4894487b-3a7d-497e-b92a-85791f66026a}, !- Construction Name
  ExteriorWall,                           !- Intended Surface Type
  Mass,                                   !- Standards Construction Type
  ,                                       !- Perturbable Layer
  ,                                       !- Perturbable Layer Type
  ,                                       !- Other Perturbable Layer Type
  ASHRAE 189.1-2009;                      !- Construction Standard

OS:Material,
  {874da183-4167-4b11-aa3c-0c56e5395287}, !- Handle
  Wall Insulation [35],                   !- Name
  MediumRough,                            !- Roughness
  0.0452,                                 !- Thickness {m}
  0.0432,                                 !- Conductivity {W/m-K}
  91,                                     !- Density {kg/m3}
  836.999999999999,                       !- Specific Heat {J/kg-K}
  0.9,                                    !- Thermal Absorptance
  0.5,                                    !- Solar Absorptance
  0.5;                                    !- Visible Absorptance

OS:StandardsInformation:Material,
  {02dc1339-686b-4819-b33d-09a5f3ae3550}, !- Handle
  {874da183-4167-4b11-aa3c-0c56e5395287}; !- Material Name

OS:Construction,
  {6c4e924e-3549-4823-b5ee-3dca80cb1522}, !- Handle
  ASHRAE 189.1-2009 ExtWall Mass ClimateZone 3, !- Name
  ,                                       !- Surface Rendering Name
  {07ca7755-b7ae-45dd-a685-c8bad4152b23}, !- Layer 1
  {1fb5928a-348b-43ab-8b64-ffe6293a4afd}, !- Layer 2
  {e022e815-ea23-4c5b-8df9-d79f04567c50}, !- Layer 3
  {403da8f4-4045-41c6-b72a-1d0bf723eb7c}; !- Layer 4

OS:StandardsInformation:Construction,
  {b0472fde-4d42-44f3-9de2-5f36b3c7bc14}, !- Handle
  {6c4e924e-3549-4823-b5ee-3dca80cb1522}, !- Construction Name
  ExteriorWall,                           !- Intended Surface Type
  Mass,                                   !- Standards Construction Type
  ,                                       !- Perturbable Layer
  ,                                       !- Perturbable Layer Type
  ,                                       !- Other Perturbable Layer Type
  ASHRAE 189.1-2009;                      !- Construction Standard

OS:Material,
  {e022e815-ea23-4c5b-8df9-d79f04567c50}, !- Handle
  Wall Insulation [36],                   !- Name
  MediumRough,                            !- Roughness
  0.0565999999999999,                     !- Thickness {m}
  0.0432,                                 !- Conductivity {W/m-K}
  91,                                     !- Density {kg/m3}
  836.999999999999,                       !- Specific Heat {J/kg-K}
  0.9,                                    !- Thermal Absorptance
  0.5,                                    !- Solar Absorptance
  0.5;                                    !- Visible Absorptance

OS:StandardsInformation:Material,
  {a37fe37e-df05-48ab-96f1-61566bba76eb}, !- Handle
  {e022e815-ea23-4c5b-8df9-d79f04567c50}; !- Material Name

OS:Construction,
  {73725f37-8af7-492b-a7b6-ddec008bc5fb}, !- Handle
  ASHRAE 189.1-2009 ExtWall Mass ClimateZone 4, !- Name
  ,                                       !- Surface Rendering Name
  {07ca7755-b7ae-45dd-a685-c8bad4152b23}, !- Layer 1
  {1fb5928a-348b-43ab-8b64-ffe6293a4afd}, !- Layer 2
  {49ecd576-e492-4ae1-a085-9baa9e301358}, !- Layer 3
  {403da8f4-4045-41c6-b72a-1d0bf723eb7c}; !- Layer 4

OS:StandardsInformation:Construction,
  {dcf41c1b-e85f-4e99-835b-9308a0a387db}, !- Handle
  {73725f37-8af7-492b-a7b6-ddec008bc5fb}, !- Construction Name
  ExteriorWall,                           !- Intended Surface Type
  Mass,                                   !- Standards Construction Type
  ,                                       !- Perturbable Layer
  ,                                       !- Perturbable Layer Type
  ,                                       !- Other Perturbable Layer Type
  ASHRAE 189.1-2009;                      !- Construction Standard

OS:Material,
  {49ecd576-e492-4ae1-a085-9baa9e301358}, !- Handle
  Wall Insulation [37],                   !- Name
  MediumRough,                            !- Roughness
  0.0680999999999999,                     !- Thickness {m}
  0.0432,                                 !- Conductivity {W/m-K}
  91,                                     !- Density {kg/m3}
  836.999999999999,                       !- Specific Heat {J/kg-K}
  0.9,                                    !- Thermal Absorptance
  0.5,                                    !- Solar Absorptance
  0.5;                                    !- Visible Absorptance

OS:StandardsInformation:Material,
  {ab0db380-0836-4e0a-8eeb-d174766263a4}, !- Handle
  {49ecd576-e492-4ae1-a085-9baa9e301358}; !- Material Name

OS:Construction,
  {e78751c6-dc5c-4fd1-ab98-f88c10e41e4a}, !- Handle
  ASHRAE 189.1-2009 ExtWall Mass ClimateZone 5, !- Name
  ,                                       !- Surface Rendering Name
  {07ca7755-b7ae-45dd-a685-c8bad4152b23}, !- Layer 1
  {1fb5928a-348b-43ab-8b64-ffe6293a4afd}, !- Layer 2
  {1e8addef-7f78-4b4b-aaba-44f12b3aa471}, !- Layer 3
  {403da8f4-4045-41c6-b72a-1d0bf723eb7c}; !- Layer 4

OS:StandardsInformation:Construction,
  {f56defea-1dd5-4ef7-ac8b-c4c0faf2e6d3}, !- Handle
  {e78751c6-dc5c-4fd1-ab98-f88c10e41e4a}, !- Construction Name
  ExteriorWall,                           !- Intended Surface Type
  Mass,                                   !- Standards Construction Type
  ,                                       !- Perturbable Layer
  ,                                       !- Perturbable Layer Type
  ,                                       !- Other Perturbable Layer Type
  ASHRAE 189.1-2009;                      !- Construction Standard

OS:Material,
  {1e8addef-7f78-4b4b-aaba-44f12b3aa471}, !- Handle
  Wall Insulation [40],                   !- Name
  MediumRough,                            !- Roughness
  0.0793999999999999,                     !- Thickness {m}
  0.0432,                                 !- Conductivity {W/m-K}
  91,                                     !- Density {kg/m3}
  836.999999999999,                       !- Specific Heat {J/kg-K}
  0.9,                                    !- Thermal Absorptance
  0.5,                                    !- Solar Absorptance
  0.5;                                    !- Visible Absorptance

OS:StandardsInformation:Material,
  {09365ad3-1251-4d52-b06d-79aa43cf14f4}, !- Handle
  {1e8addef-7f78-4b4b-aaba-44f12b3aa471}; !- Material Name

OS:Construction,
  {dfb734c0-b943-4d36-a6e3-74435bb3c113}, !- Handle
  ASHRAE 189.1-2009 ExtWall Mass ClimateZone 6, !- Name
  ,                                       !- Surface Rendering Name
  {07ca7755-b7ae-45dd-a685-c8bad4152b23}, !- Layer 1
  {1fb5928a-348b-43ab-8b64-ffe6293a4afd}, !- Layer 2
  {89bd37b3-d70c-4358-a729-d1afba53d077}, !- Layer 3
  {403da8f4-4045-41c6-b72a-1d0bf723eb7c}; !- Layer 4

OS:StandardsInformation:Construction,
  {cf6da99f-547b-491b-8cba-60886b9383f3}, !- Handle
  {dfb734c0-b943-4d36-a6e3-74435bb3c113}, !- Construction Name
  ExteriorWall,                           !- Intended Surface Type
  Mass,                                   !- Standards Construction Type
  ,                                       !- Perturbable Layer
  ,                                       !- Perturbable Layer Type
  ,                                       !- Other Perturbable Layer Type
  ASHRAE 189.1-2009;                      !- Construction Standard

OS:Material,
  {89bd37b3-d70c-4358-a729-d1afba53d077}, !- Handle
  Wall Insulation [42],                   !- Name
  MediumRough,                            !- Roughness
  0.0913999999999999,                     !- Thickness {m}
  0.0432,                                 !- Conductivity {W/m-K}
  91,                                     !- Density {kg/m3}
  836.999999999999,                       !- Specific Heat {J/kg-K}