
OS:Version,
  {d42cee32-bd31-48d5-9704-f1800f6ab514}, !- Handle
  2.3.0;                                  !- Version Identifier

OS:Construction,
  {c96d8996-9756-4545-bc7d-5e0995569ea3}, !- Handle
  ASHRAE 189.1-2009 AtticFloor ClimateZone 1-8, !- Name
  ,                                       !- Surface Rendering Name
  {b2ac8033-cba8-41ca-930c-fa567c3849b7}, !- Layer 1
  {aa37ddff-c86f-4999-97b0-fd642549403e}, !- Layer 2
  {b2ac8033-cba8-41ca-930c-fa567c3849b7}; !- Layer 3

OS:StandardsInformation:Construction,
  {024f36c7-a515-4e53-a1bb-7759ebbfe66f}, !- Handle
  {c96d8996-9756-4545-bc7d-5e0995569ea3}, !- Construction Name
  AtticFloor,                             !- Intended Surface Type
  WoodFramed,                             !- Standards Construction Type
  ,                                       !- Perturbable Layer
  ,                                       !- Perturbable Layer Type
  ,                                       !- Other Perturbable Layer Type
  ASHRAE 189.1-2009;                      !- Construction Standard

OS:Material,
  {b2ac8033-cba8-41ca-930c-fa567c3849b7}, !- Handle
  1/2IN Gypsum,                           !- Name
  Smooth,                                 !- Roughness
  0.0127,                                 !- Thickness {m}
  0.16,                                   !- Conductivity {W/m-K}
  784.9,                                  !- Density {kg/m3}
  830.000000000001,                       !- Specific Heat {J/kg-K}
  0.9,                                    !- Thermal Absorptance
  0.4,                                    !- Solar Absorptance
  0.4;                                    !- Visible Absorptance

OS:StandardsInformation:Material,
  {8099b367-54e1-4c8e-9450-4e46128512b4}, !- Handle
  {b2ac8033-cba8-41ca-930c-fa567c3849b7}; !- Material Name

OS:Material,
  {aa37ddff-c86f-4999-97b0-fd642549403e}, !- Handle
  AtticFloor Insulation,                  !- Name
  MediumRough,                            !- Roughness
  0.2379,                                 !- Thickness {m}
  0.049,                                  !- Conductivity {W/m-K}
  265,                                    !- Density {kg/m3}
  836.800000000001,                       !- Specific Heat {J/kg-K}
  0.9,                                    !- Thermal Absorptance
  0.7,                                    !- Solar Absorptance
  0.7;                                    !- Visible Absorptance

OS:StandardsInformation:Material,
  {1d647b5f-f2ec-4759-8d52-3a59ea32103f}, !- Handle
  {aa37ddff-c86f-4999-97b0-fd642549403e}; !- Material Name

OS:Construction,
  {a07847e5-a44f-4cc4-879d-8f335138afe7}, !- Handle
  ASHRAE 189.1-2009 ExtRoof IEAD ClimateZone 1, !- Name
  ,                                       !- Surface Rendering Name
  {b3d5f915-4265-4bf2-9c98-d28e155d9f34}, !- Layer 1
  {906debea-1b7d-4afa-bcac-75ea43c59e12}, !- Layer 2
  {f7e7fdc9-2d5a-4c84-a233-d2c57ce4b328}; !- Layer 3

OS:StandardsInformation:Construction,
  {f28b6b11-2908-4775-8385-3f74ac3ac105}, !- Handle
  {a07847e5-a44f-4cc4-879d-8f335138afe7}, !- Construction Name
  ExteriorRoof,                           !- Intended Surface Type
  IEAD,                                   !- Standards Construction Type
  ,                                       !- Perturbable Layer
  ,                                       !- Perturbable Layer Type
  ,                                       !- Other Perturbable Layer Type
  ASHRAE 189.1-2009;                      !- Construction Standard

OS:Material,
  {b3d5f915-4265-4bf2-9c98-d28e155d9f34}, !- Handle
  Roof Membrane,                          !- Name
  VeryRough,                              !- Roughness
  0.0095,                                 !- Thickness {m}
  0.16,                                   !- Conductivity {W/m-K}
  1121.29,                                !- Density {kg/m3}
  1460,                                   !- Specific Heat {J/kg-K}
  0.9,                                    !- Thermal Absorptance
  0.7,                                    !- Solar Absorptance
  0.7;                                    !- Visible Absorptance

OS:StandardsInformation:Material,
  {80015197-ab59-4916-86c9-19eb38fe0b1b}, !- Handle
  {b3d5f915-4265-4bf2-9c98-d28e155d9f34}; !- Material Name

OS:Material,
  {906debea-1b7d-4afa-bcac-75ea43c59e12}, !- Handle
  Roof Insulation [18],                   !- Name
  MediumRough,                            !- Roughness
  0.1693,                                 !- Thickness {m}
  0.049,                                  !- Conductivity {W/m-K}
  265,                                    !- Density {kg/m3}
  836.800000000001,                       !- Specific Heat {J/kg-K}
  0.9,                                    !- Thermal Absorptance
  0.7,                                    !- Solar Absorptance
  0.7;                                    !- Visible Absorptance

OS:StandardsInformation:Material,
  {0d5bf346-7ce9-4bd4-92d2-7a46d25d8aa9}, !- Handle
  {906debea-1b7d-4afa-bcac-75ea43c59e12}; !- Material Name

OS:Material,
  {f7e7fdc9-2d5a-4c84-a233-d2c57ce4b328}, !- Handle
  Metal Decking,                          !- Name
  MediumSmooth,                           !- Roughness
  0.0015,                                 !- Thickness {m}
  45.006,                                 !- Conductivity {W/m-K}
  7680,                                   !- Density {kg/m3}
  418.4,                                  !- Specific Heat {J/kg-K}
  0.9,                                    !- Thermal Absorptance
  0.6,                                    !- Solar Absorptance
  0.6;                                    !- Visible Absorptance

OS:StandardsInformation:Material,
  {bdd5b9e2-d893-4426-9851-3e7e80b2d49d}, !- Handle
  {f7e7fdc9-2d5a-4c84-a233-d2c57ce4b328}; !- Material Name

OS:Construction,
  {dea66dbe-b265-4851-97ef-4c82c99a9457}, !- Handle
  ASHRAE 189.1-2009 ExtRoof IEAD ClimateZone 2-5, !- Name
  ,                                       !- Surface Rendering Name
  {b3d5f915-4265-4bf2-9c98-d28e155d9f34}, !- Layer 1
  {1e919c93-7b6c-4242-b1c9-4a1d8cee091e}, !- Layer 2
  {f7e7fdc9-2d5a-4c84-a233-d2c57ce4b328}; !- Layer 3

OS:StandardsInformation:Construction,
  {058a1bf6-676d-4d1a-bb18-4b97b69804d7}, !- Handle
  {dea66dbe-b265-4851-97ef-4c82c99a9457}, !- Construction Name
  ExteriorRoof,                           !- Intended Surface Type
  IEAD,                                   !- Standards Construction Type
  ,                                       !- Perturbable Layer
  ,                                       !- Perturbable Layer Type
  ,                                       !- Other Perturbable Layer Type
  ASHRAE 189.1-2009;                      !- Construction Standard

OS:Material,
  {1e919c93-7b6c-4242-b1c9-4a1d8cee091e}, !- Handle
  Roof Insulation [21],                   !- Name
  MediumRough,                            !- Roughness
  0.2105,                                 !- Thickness {m}
  0.049,                                  !- Conductivity {W/m-K}
  265,                                    !- Density {kg/m3}
  836.800000000001,                       !- Specific Heat {J/kg-K}
  0.9,                                    !- Thermal Absorptance
  0.7,                                    !- Solar Absorptance
  0.7;                                    !- Visible Absorptance

OS:StandardsInformation:Material,
  {6b785598-5577-4b20-bf06-510e2a626804}, !- Handle
  {1e919c93-7b6c-4242-b1c9-4a1d8cee091e}; !- Material Name

OS:Construction,
  {c7284c90-1a4a-45a7-9b60-e3ede7e8b47d}, !- Handle
  ASHRAE 189.1-2009 ExtRoof IEAD ClimateZone 6, !- Name
  ,                                       !- Surface Rendering Name
  {b3d5f915-4265-4bf2-9c98-d28e155d9f34}, !- Layer 1
  {4de94bb4-efdd-43cf-b153-6b3877b8579f}, !- Layer 2
  {f7e7fdc9-2d5a-4c84-a233-d2c57ce4b328}; !- Layer 3

OS:StandardsInformation:Construction,
  {56171356-1f7d-4404-b891-7c85d89ee8cb}, !- Handle
  {c7284c90-1a4a-45a7-9b60-e3ede7e8b47d}, !- Construction Name
  ExteriorRoof,                           !- Intended Surface Type
  IEAD,                                   !- Standards Construction Type
  ,                                       !- Perturbable Layer
  ,                                       !- Perturbable Layer Type
  ,                                       !- Other Perturbable Layer Type
  ASHRAE 189.1-2009;                      !- Construction Standard

OS:Material,
  {4de94bb4-efdd-43cf-b153-6b3877b8579f}, !- Handle
  Roof Insulation [24],                   !- Name
  MediumRough,                            !- Roughness
  0.260100000000001,                      !- Thickness {m}
  0.049,                                  !- Conductivity {W/m-K}
  265,                                    !- Density {kg/m3}
  836.800000000001,                       !- Specific Heat {J/kg-K}
  0.9,                                    !- Thermal Absorptance
  0.7,                                    !- Solar Absorptance
  0.7;                                    !- Visible Absorptance

OS:StandardsInformation:Material,
  {d437dc19-44cf-4e94-803b-7e0bacbf0947}, !- Handle
  {4de94bb4-efdd-43cf-b153-6b3877b8579f}; !- Material Name

OS:Construction,
  {eb6d2204-bb10-49e4-90ae-6fcaa4ec6d72}, !- Handle
  ASHRAE 189.1-2009 ExtRoof IEAD ClimateZone 7-8, !- Name
  ,                                       !- Surface Rendering Name
  {b3d5f915-4265-4bf2-9c98-d28e155d9f34}, !- Layer 1
  {761ceea9-376d-4c3c-993a-070c6f674541}, !- Layer 2
  {f7e7fdc9-2d5a-4c84-a233-d2c57ce4b328}; !- Layer 3

OS:StandardsInformation:Construction,
  {b5e63084-29f1-4d35-9173-87a1b4bf0328}, !- Handle
  {eb6d2204-bb10-49e4-90ae-6fcaa4ec6d72}, !- Construction Name
  ExteriorRoof,                           !- Intended Surface Type
  IEAD,                                   !- Standards Construction Type
  ,                                       !- Perturbable Layer
  ,                                       !- Perturbable Layer Type
  ,                                       !- Other Perturbable Layer Type
  ASHRAE 189.1-2009;                      !- Construction Standard

OS:Material,
  {761ceea9-376d-4c3c-993a-070c6f674541}, !- Handle
  Roof Insulation [26],                   !- Name
  MediumRough,                            !- Roughness
  0.2941,                                 !- Thickness {m}
  0.049,                                  !- Conductivity {W/m-K}
  265,                                    !- Density {kg/m3}
  836.800000000001,                       !- Specific Heat {J/kg-K}
  0.9,                                    !- Thermal Absorptance
  0.7,                                    !- Solar Absorptance
  0.7;                                    !- Visible Absorptance

OS:StandardsInformation:Material,
  {35f67fa7-05f7-4c2b-a13c-a67e2d121a13}, !- Handle
  {761ceea9-376d-4c3c-993a-070c6f674541}; !- Material Name

OS:Construction,
  {65773359-cd86-4688-a88d-ae83612a0e20}, !- Handle
  ASHRAE 189.1-2009 ExtRoof Metal ClimateZone 1, !- Name
  ,                                       !- Surface Rendering Name
  {cb663715-fe9b-4200-a8fc-087d955a538f}, !- Layer 1
  {4d1aa495-3a01-4e95-ae6d-ab8b181fb622}, !- Layer 2
  {f7e7fdc9-2d5a-4c84-a233-d2c57ce4b328}; !- Layer 3

OS:StandardsInformation:Construction,
  {fbcf1f8b-f4f0-4b4b-b0fa-baa6c7e75bf0}, !- Handle
  {65773359-cd86-4688-a88d-ae83612a0e20}, !- Construction Name
  ExteriorRoof,                           !- Intended Surface Type
  Metal,                                  !- Standards Construction Type
  ,                                       !- Perturbable Layer
  ,                                       !- Perturbable Layer Type
  ,                                       !- Other Perturbable Layer Type
  ASHRAE 189.1-2009;                      !- Construction Standard

OS:Material,
  {cb663715-fe9b-4200-a8fc-087d955a538f}, !- Handle
  Metal Roofing,                          !- Name
  MediumSmooth,                           !- Roughness
  0.0015,                                 !- Thickness {m}
  45.006,                                 !- Conductivity {W/m-K}
  7680,                                   !- Density {kg/m3}
  418.4,                                  !- Specific Heat {J/kg-K}
  0.9,                                    !- Thermal Absorptance
  0.6,                                    !- Solar Absorptance
  0.6;                                    !- Visible Absorptance

OS:StandardsInformation:Material,
  {9e9a00c1-6eca-42ed-9d7e-1373014d9fd2}, !- Handle
  {cb663715-fe9b-4200-a8fc-087d955a538f}; !- Material Name

OS:Material,
  {4d1aa495-3a01-4e95-ae6d-ab8b181fb622}, !- Handle
  Roof Insulation [19],                   !- Name
  MediumRough,                            !- Roughness
  0.1868,                                 !- Thickness {m}
  0.049,                                  !- Conductivity {W/m-K}
  265,                                    !- Density {kg/m3}
  836.800000000001,                       !- Specific Heat {J/kg-K}
  0.9,                                    !- Thermal Absorptance
  0.7,                                    !- Solar Absorptance
  0.7;                                    !- Visible Absorptance

OS:StandardsInformation:Material,
  {5f64661b-8d2b-4617-be02-74f4bb0f2507}, !- Handle
  {4d1aa495-3a01-4e95-ae6d-ab8b181fb622}; !- Material Name

OS:Construction,
  {925f1e10-587f-47c5-bc1c-5fe87e184818}, !- Handle
  ASHRAE 189.1-2009 ExtRoof Metal ClimateZone 2-5, !- Name
  ,                                       !- Surface Rendering Name
  {cb663715-fe9b-4200-a8fc-087d955a538f}, !- Layer 1
  {5e99d89a-7984-4b77-9735-121f9f7f568a}, !- Layer 2
  {f7e7fdc9-2d5a-4c84-a233-d2c57ce4b328}; !- Layer 3

OS:StandardsInformation:Construction,
  {39743331-fd19-4a14-b278-f3b0188015a1}, !- Handle
  {925f1e10-587f-47c5-bc1c-5fe87e184818}, !- Construction Name
  ExteriorRoof,                           !- Intended Surface Type
  Metal,                                  !- Standards Construction Type
  ,                                       !- Perturbable Layer
  ,                                       !- Perturbable Layer Type
  ,                                       !- Other Perturbable Layer Type
  ASHRAE 189.1-2009;                      !- Construction Standard

OS:Material,
  {5e99d89a-7984-4b77-9735-121f9f7f568a}, !- Handle
  Roof Insulation [22],                   !- Name
  MediumRough,                            !- Roughness
  0.2358,                                 !- Thickness {m}
  0.049,                                  !- Conductivity {W/m-K}
  265,                                    !- Density {kg/m3}
  836.800000000001,                       !- Specific Heat {J/kg-K}
  0.9,                                    !- Thermal Absorptance
  0.7,                                    !- Solar Absorptance
  0.7;                                    !- Visible Absorptance

OS:StandardsInformation:Material,
  {27d84488-c215-47e7-b455-e696c55c334d}, !- Handle
  {5e99d89a-7984-4b77-9735-121f9f7f568a}; !- Material Name

OS:Construction,
  {81e233a8-7740-4295-80eb-a68543663b62}, !- Handle
  ASHRAE 189.1-2009 ExtRoof Metal ClimateZone 6, !- Name
  ,                                       !- Surface Rendering Name
  {cb663715-fe9b-4200-a8fc-087d955a538f}, !- Layer 1
  {2b113cec-157e-4750-90b1-e892a10b8f93}, !- Layer 2
  {f7e7fdc9-2d5a-4c84-a233-d2c57ce4b328}; !- Layer 3

OS:StandardsInformation:Construction,
  {5e73ba4a-27f4-4ef7-86f0-df5570fcc67c}, !- Handle
  {81e233a8-7740-4295-80eb-a68543663b62}, !- Construction Name
  ExteriorRoof,                           !- Intended Surface Type
  Metal,                                  !- Standards Construction Type
  ,                                       !- Perturbable Layer
  ,                                       !- Perturbable Layer Type
  ,                                       !- Other Perturbable Layer Type
  ASHRAE 189.1-2009;                      !- Construction Standard

OS:Material,
  {2b113cec-157e-4750-90b1-e892a10b8f93}, !- Handle
  Roof Insulation [25],                   !- Name
  MediumRough,                            !- Roughness
  0.263,                                  !- Thickness {m}
  0.049,                                  !- Conductivity {W/m-K}
  265,                                    !- Density {kg/m3}
  836.800000000001,                       !- Specific Heat {J/kg-K}
  0.9,                                    !- Thermal Absorptance
  0.7,                                    !- Solar Absorptance
  0.7;                                    !- Visible Absorptance

OS:StandardsInformation:Material,
  {ed02044c-3722-4957-81c3-6df8779f874f}, !- Handle
  {2b113cec-157e-4750-90b1-e892a10b8f93}; !- Material Name

OS:Construction,
  {60a02ccf-dc06-491a-852b-b1b26244b545}, !- Handle
  ASHRAE 189.1-2009 ExtRoof Metal ClimateZone 7-8, !- Name
  ,                                       !- Surface Rendering Name
  {cb663715-fe9b-4200-a8fc-087d955a538f}, !- Layer 1
  {06023284-42a1-4686-a48e-65337900cb15}, !- Layer 2
  {f7e7fdc9-2d5a-4c84-a233-d2c57ce4b328}; !- Layer 3

OS:StandardsInformation:Construction,
  {25161780-4c58-4bbd-ba34-f797046c8fb2}, !- Handle
  {60a02ccf-dc06-491a-852b-b1b26244b545}, !- Construction Name
  ExteriorRoof,                           !- Intended Surface Type
  Metal,                                  !- Standards Construction Type
  ,                                       !- Perturbable Layer
  ,                                       !- Perturbable Layer Type
  ,                                       !- Other Perturbable Layer Type
  ASHRAE 189.1-2009;                      !- Construction Standard

OS:Material,
  {06023284-42a1-4686-a48e-65337900cb15}, !- Handle
  Roof Insulation [27],                   !- Name
  MediumRough,                            !- Roughness
  0.297000000000001,                      !- Thickness {m}
  0.049,                                  !- Conductivity {W/m-K}
  265,                                    !- Density {kg/m3}
  836.800000000001,                       !- Specific Heat {J/kg-K}
  0.9,                                    !- Thermal Absorptance
  0.7,                                    !- Solar Absorptance
  0.7;                                    !- Visible Absorptance

OS:StandardsInformation:Material,
  {f71dca69-08fd-486d-85ff-1f971e53c867}, !- Handle
  {06023284-42a1-4686-a48e-65337900cb15}; !- Material Name

OS:Construction,
  {134509bd-c178-4e91-91f1-d0d20fdf6e96}, !- Handle
  ASHRAE 189.1-2009 ExtWall Mass ClimateZone 1, !- Name
  ,                                       !- Surface Rendering Name
  {25538e57-be11-4826-bfe2-1f71aea0889e}, !- Layer 1
  {ba952f70-660f-4ec3-9919-7cf889f3072d}, !- Layer 2
  {47cbb919-f01b-4881-ac50-f31a37633f28}, !- Layer 3
  {b2ac8033-cba8-41ca-930c-fa567c3849b7}; !- Layer 4

OS:StandardsInformation:Construction,
  {91665762-9a47-496c-beac-b1d698b5b255}, !- Handle
  {134509bd-c178-4e91-91f1-d0d20fdf6e96}, !- Construction Name
  ExteriorWall,                           !- Intended Surface Type
  Mass,                                   !- Standards Construction Type
  ,                                       !- Perturbable Layer
  ,                                       !- Perturbable Layer Type
  ,                                       !- Other Perturbable Layer Type
  ASHRAE 189.1-2009;                      !- Construction Standard

OS:Material,
  {25538e57-be11-4826-bfe2-1f71aea0889e}, !- Handle
  1IN Stucco,                             !- Name
  Smooth,                                 !- Roughness
  0.0253,                                 !- Thickness {m}
  0.691799999999999,                      !- Conductivity {W/m-K}
  1858,                                   !- Density {kg/m3}
  836.999999999999,                       !- Specific Heat {J/kg-K}
  0.9,                                    !- Thermal Absorptance
  0.92,                                   !- Solar Absorptance
  0.92;                                   !- Visible Absorptance

OS:StandardsInformation:Material,
  {12cab1e6-72b3-462b-8291-9b815ac0d30e}, !- Handle
  {25538e57-be11-4826-bfe2-1f71aea0889e}; !- Material Name

OS:Material,
  {ba952f70-660f-4ec3-9919-7cf889f3072d}, !- Handle
  8IN Concrete HW,                        !- Name
  MediumRough,                            !- Roughness
  0.2033,                                 !- Thickness {m}
  1.72959999999999,                       !- Conductivity {W/m-K}
  2242.99999999999,                       !- Density {kg/m3}
  836.999999999999,                       !- Specific Heat {J/kg-K}
  0.9,                                    !- Thermal Absorptance
  0.65,                                   !- Solar Absorptance
  0.65;                                   !- Visible Absorptance

OS:StandardsInformation:Material,
  {d8fcdb21-d0f5-4fb9-b9dc-59fe4c8bcdcf}, !- Handle
  {ba952f70-660f-4ec3-9919-7cf889f3072d}; !- Material Name

OS:Material,
  {47cbb919-f01b-4881-ac50-f31a37633f28}, !- Handle
  Wall Insulation [31],                   !- Name
  MediumRough,                            !- Roughness
  0.0337000000000001,                     !- Thickness {m}
  0.0432,                                 !- Conductivity {W/m-K}
  91,                                     !- Density {kg/m3}
  836.999999999999,                       !- Specific Heat {J/kg-K}
  0.9,                                    !- Thermal Absorptance
  0.5,                                    !- Solar Absorptance
  0.5;                                    !- Visible Absorptance

OS:StandardsInformation:Material,
  {df6496ad-e34f-4ad9-8b8c-dc637c00b171}, !- Handle
  {47cbb919-f01b-4881-ac50-f31a37633f28}; !- Material Name

OS:Construction,
  {572db3d6-00a6-4b53-bbd5-8c4f468319f7}, !- Handle
  ASHRAE 189.1-2009 ExtWall Mass ClimateZone 2, !- Name
  ,                                       !- Surface Rendering Name
  {25538e57-be11-4826-bfe2-1f71aea0889e}, !- Layer 1
  {ba952f70-660f-4ec3-9919-7cf889f3072d}, !- Layer 2
  {3cdaee2e-efed-4499-9740-9529eaf3b2ad}, !- Layer 3
  {b2ac8033-cba8-41ca-930c-fa567c3849b7}; !- Layer 4

OS:StandardsInformation:Construction,
  {9a4d07d8-224f-4994-adb4-41a78e9f8b55}, !- Handle
  {572db3d6-00a6-4b53-bbd5-8c4f468319f7}, !- Construction Name
  ExteriorWall,                           !- Intended Surface Type
  Mass,                                   !- Standards Construction Type
  ,                                       !- Perturbable Layer
  ,                                       !- Perturbable Layer Type
  ,                                       !- Other Perturbable Layer Type
  ASHRAE 189.1-2009;                      !- Construction Standard

OS:Material,
  {3cdaee2e-efed-4499-9740-9529eaf3b2ad}, !- Handle
  Wall Insulation [35],                   !- Name
  MediumRough,                            !- Roughness
  0.0452,                                 !- Thickness {m}
  0.0432,                                 !- Conductivity {W/m-K}
  91,                                     !- Density {kg/m3}
  836.999999999999,                       !- Specific Heat {J/kg-K}
  0.9,                                    !- Thermal Absorptance
  0.5,                                    !- Solar Absorptance
  0.5;                                    !- Visible Absorptance

OS:StandardsInformation:Material,
  {b682625e-d615-4014-aed5-046269445947}, !- Handle
  {3cdaee2e-efed-4499-9740-9529eaf3b2ad}; !- Material Name

OS:Construction,
  {87b5db57-b1d2-4681-9bd5-7be9bc57058f}, !- Handle
  ASHRAE 189.1-2009 ExtWall Mass ClimateZone 3, !- Name
  ,                                       !- Surface Rendering Name
  {25538e57-be11-4826-bfe2-1f71aea0889e}, !- Layer 1
  {ba952f70-660f-4ec3-9919-7cf889f3072d}, !- Layer 2
  {d1846652-00ef-402f-9ed8-f1cb1c8c8a27}, !- Layer 3
  {b2ac8033-cba8-41ca-930c-fa567c3849b7}; !- Layer 4

OS:StandardsInformation:Construction,
  {a48ed5b6-c113-4f76-98e4-20d5800df84a}, !- Handle
  {87b5db57-b1d2-4681-9bd5-7be9bc57058f}, !- Construction Name
  ExteriorWall,                           !- Intended Surface Type
  Mass,                                   !- Standards Construction Type
  ,                                       !- Perturbable Layer
  ,                                       !- Perturbable Layer Type
  ,                                       !- Other Perturbable Layer Type
  ASHRAE 189.1-2009;                      !- Construction Standard

OS:Material,
  {d1846652-00ef-402f-9ed8-f1cb1c8c8a27}, !- Handle
  Wall Insulation [36],                   !- Name
  MediumRough,                            !- Roughness
  0.0565999999999999,                     !- Thickness {m}
  0.0432,                                 !- Conductivity {W/m-K}
  91,                                     !- Density {kg/m3}
  836.999999999999,                       !- Specific Heat {J/kg-K}
  0.9,                                    !- Thermal Absorptance
  0.5,                                    !- Solar Absorptance
  0.5;                                    !- Visible Absorptance

OS:StandardsInformation:Material,
  {7da3f903-8666-40ce-acd6-3deb5ae69f47}, !- Handle
  {d1846652-00ef-402f-9ed8-f1cb1c8c8a27}; !- Material Name

OS:Construction,
  {d8162388-a9c8-4efc-b7af-ab1b73551f4d}, !- Handle
  ASHRAE 189.1-2009 ExtWall Mass ClimateZone 4, !- Name
  ,                                       !- Surface Rendering Name
  {25538e57-be11-4826-bfe2-1f71aea0889e}, !- Layer 1
  {ba952f70-660f-4ec3-9919-7cf889f3072d}, !- Layer 2
  {972b45e7-d5a4-402a-b8b9-e17d05d8739a}, !- Layer 3
  {b2ac8033-cba8-41ca-930c-fa567c3849b7}; !- Layer 4

OS:StandardsInformation:Construction,
  {eb8c506f-fdaf-4fd0-a940-ab67e04be2d1}, !- Handle
  {d8162388-a9c8-4efc-b7af-ab1b73551f4d}, !- Construction Name
  ExteriorWall,                           !- Intended Surface Type
  Mass,                                   !- Standards Construction Type
  ,                                       !- Perturbable Layer
  ,                                       !- Perturbable Layer Type
  ,                                       !- Other Perturbable Layer Type
  ASHRAE 189.1-2009;                      !- Construction Standard

OS:Material,
  {972b45e7-d5a4-402a-b8b9-e17d05d8739a}, !- Handle
  Wall Insulation [37],                   !- Name
  MediumRough,                            !- Roughness
  0.0680999999999999,                     !- Thickness {m}
  0.0432,                                 !- Conductivity {W/m-K}
  91,                                     !- Density {kg/m3}
  836.999999999999,                       !- Specific Heat {J/kg-K}
  0.9,                                    !- Thermal Absorptance
  0.5,                                    !- Solar Absorptance
  0.5;                                    !- Visible Absorptance

OS:StandardsInformation:Material,
  {7daf574f-d97b-4bb9-a1a8-cf1e3a4188f8}, !- Handle
  {972b45e7-d5a4-402a-b8b9-e17d05d8739a}; !- Material Name

OS:Construction,
  {a80f77ce-c2ce-4e3a-aa2e-fda3809dd64f}, !- Handle
  ASHRAE 189.1-2009 ExtWall Mass ClimateZone 5, !- Name
  ,                                       !- Surface Rendering Name
  {25538e57-be11-4826-bfe2-1f71aea0889e}, !- Layer 1
  {ba952f70-660f-4ec3-9919-7cf889f3072d}, !- Layer 2
  {2c39da1c-04f6-4bcb-bd0e-85e91c690899}, !- Layer 3
  {b2ac8033-cba8-41ca-930c-fa567c3849b7}; !- Layer 4

OS:StandardsInformation:Construction,
  {f4b28f97-162a-4ed9-9850-b03f30e3b1eb}, !- Handle
  {a80f77ce-c2ce-4e3a-aa2e-fda3809dd64f}, !- Construction Name
  ExteriorWall,                           !- Intended Surface Type
  Mass,                                   !- Standards Construction Type
  ,                                       !- Perturbable Layer
  ,                                       !- Perturbable Layer Type
  ,                                       !- Other Perturbable Layer Type
  ASHRAE 189.1-2009;                      !- Construction Standard

OS:Material,
  {2c39da1c-04f6-4bcb-bd0e-85e91c690899}, !- Handle
  Wall Insulation [40],                   !- Name
  MediumRough,                            !- Roughness
  0.0793999999999999,                     !- Thickness {m}
  0.0432,                                 !- Conductivity {W/m-K}
  91,                                     !- Density {kg/m3}
  836.999999999999,                       !- Specific Heat {J/kg-K}
  0.9,                                    !- Thermal Absorptance
  0.5,                                    !- Solar Absorptance
  0.5;                                    !- Visible Absorptance

OS:StandardsInformation:Material,
  {bb8ffac7-f08b-4327-a561-9ab26db3bb8c}, !- Handle
  {2c39da1c-04f6-4bcb-bd0e-85e91c690899}; !- Material Name

OS:Construction,
  {e6a3121c-9e34-4dc7-93a9-1906b6d9a0b1}, !- Handle
  ASHRAE 189.1-2009 ExtWall Mass ClimateZone 6, !- Name
  ,                                       !- Surface Rendering Name
  {25538e57-be11-4826-bfe2-1f71aea0889e}, !- Layer 1
  {ba952f70-660f-4ec3-9919-7cf889f3072d}, !- Layer 2
  {ccc1e0f1-aaea-467b-8ba8-3e075e40c995}, !- Layer 3
  {b2ac8033-cba8-41ca-930c-fa567c3849b7}; !- Layer 4

OS:StandardsInformation:Construction,
  {2d40da93-19f2-4cff-b280-23d97afcfd3a}, !- Handle
  {e6a3121c-9e34-4dc7-93a9-1906b6d9a0b1}, !- Construction Name
  ExteriorWall,                           !- Intended Surface Type
  Mass,                                   !- Standards Construction Type
  ,                                       !- Perturbable Layer
  ,                                       !- Perturbable Layer Type
  ,                                       !- Other Perturbable Layer Type
  ASHRAE 189.1-2009;                      !- Construction Standard

OS:Material,
  {ccc1e0f1-aaea-467b-8ba8-3e075e40c995}, !- Handle
  Wall Insulation [42],                   !- Name
  MediumRough,                            !- Roughness
  0.0913999999999999,                     !- Thickness {m}
  0.0432,                                 !- Conductivity {W/m-K}
  91,                                     !- Density {kg/m3}
  836.999999999999,                       !- Specific Heat {J/kg-K}