
OS:Version,
  {48e455ac-e1ff-4574-b27c-d08769e391a6}, !- Handle
  1.4.0;                                  !- Version Identifier

OS:Construction,
  {de57085a-380a-40cf-b2a4-da56eeeb1a1a}, !- Handle
  ASHRAE 189.1-2009 AtticFloor ClimateZone 1-8, !- Name
  ,                                       !- Surface Rendering Name
  {95433a8e-ffae-41a0-8d03-ed4fa436cadf}, !- Layer 1
  {c82335d3-a0dd-4fe9-85ad-8b535daf1b7c}, !- Layer 2
  {95433a8e-ffae-41a0-8d03-ed4fa436cadf}; !- Layer 3

OS:StandardsInformation:Construction,
  {ad7b7850-9cef-4bf2-9b66-dea8464e3500}, !- Handle
  {de57085a-380a-40cf-b2a4-da56eeeb1a1a}, !- Construction Name
  AtticFloor,                             !- Intended Surface Type
  WoodFramed;                             !- Standards Construction Type

OS:Material,
  {95433a8e-ffae-41a0-8d03-ed4fa436cadf}, !- Handle
  1/2IN Gypsum,                           !- Name
  Smooth,                                 !- Roughness
  0.0127,                                 !- Thickness {m}
  0.16,                                   !- Conductivity {W/m-K}
  784.9,                                  !- Density {kg/m3}
  830.000000000001,                       !- Specific Heat {J/kg-K}
  0.9,                                    !- Thermal Absorptance
  0.4,                                    !- Solar Absorptance
  0.4;                                    !- Visible Absorptance

OS:Material,
  {c82335d3-a0dd-4fe9-85ad-8b535daf1b7c}, !- Handle
  AtticFloor Insulation,                  !- Name
  MediumRough,                            !- Roughness
  0.2379,                                 !- Thickness {m}
  0.049,                                  !- Conductivity {W/m-K}
  265,                                    !- Density {kg/m3}
  836.800000000001,                       !- Specific Heat {J/kg-K}
  0.9,                                    !- Thermal Absorptance
  0.7,                                    !- Solar Absorptance
  0.7;                                    !- Visible Absorptance

OS:Construction,
  {d84258ff-d117-4410-a523-bdde8d040a94}, !- Handle
  ASHRAE 189.1-2009 ExtRoof IEAD ClimateZone 1, !- Name
  ,                                       !- Surface Rendering Name
  {b237ea7e-050b-472d-af51-91d4843ef3c2}, !- Layer 1
  {ec37df66-dc44-4abd-ad84-54c714f34158}, !- Layer 2
  {6c37cd22-b1d1-473d-8851-d0a1279e76c8}; !- Layer 3

OS:StandardsInformation:Construction,
  {76b5477b-6c06-4ded-8513-5e9d9de42e62}, !- Handle
  {d84258ff-d117-4410-a523-bdde8d040a94}, !- Construction Name
  ExteriorRoof,                           !- Intended Surface Type
  IEAD;                                   !- Standards Construction Type

OS:Material,
  {b237ea7e-050b-472d-af51-91d4843ef3c2}, !- Handle
  Roof Membrane,                          !- Name
  VeryRough,                              !- Roughness
  0.0095,                                 !- Thickness {m}
  0.16,                                   !- Conductivity {W/m-K}
  1121.29,                                !- Density {kg/m3}
  1460,                                   !- Specific Heat {J/kg-K}
  0.9,                                    !- Thermal Absorptance
  0.7,                                    !- Solar Absorptance
  0.7;                                    !- Visible Absorptance

OS:Material,
  {ec37df66-dc44-4abd-ad84-54c714f34158}, !- Handle
  Roof Insulation [18],                   !- Name
  MediumRough,                            !- Roughness
  0.1693,                                 !- Thickness {m}
  0.049,                                  !- Conductivity {W/m-K}
  265,                                    !- Density {kg/m3}
  836.800000000001,                       !- Specific Heat {J/kg-K}
  0.9,                                    !- Thermal Absorptance
  0.7,                                    !- Solar Absorptance
  0.7;                                    !- Visible Absorptance

OS:Material,
  {6c37cd22-b1d1-473d-8851-d0a1279e76c8}, !- Handle
  Metal Decking,                          !- Name
  MediumSmooth,                           !- Roughness
  0.0015,                                 !- Thickness {m}
  45.006,                                 !- Conductivity {W/m-K}
  7680,                                   !- Density {kg/m3}
  418.4,                                  !- Specific Heat {J/kg-K}
  0.9,                                    !- Thermal Absorptance
  0.6,                                    !- Solar Absorptance
  0.6;                                    !- Visible Absorptance

OS:Construction,
  {e42a2409-228e-4a92-9593-3cd32e3d587e}, !- Handle
  ASHRAE 189.1-2009 ExtRoof IEAD ClimateZone 2-5, !- Name
  ,                                       !- Surface Rendering Name
  {b237ea7e-050b-472d-af51-91d4843ef3c2}, !- Layer 1
  {54592395-0827-4a66-92f7-a39178c86151}, !- Layer 2
  {6c37cd22-b1d1-473d-8851-d0a1279e76c8}; !- Layer 3

OS:StandardsInformation:Construction,
  {82947eec-e742-47c5-b4a4-cfe5b7538740}, !- Handle
  {e42a2409-228e-4a92-9593-3cd32e3d587e}, !- Construction Name
  ExteriorRoof,                           !- Intended Surface Type
  IEAD;                                   !- Standards Construction Type

OS:Material,
  {54592395-0827-4a66-92f7-a39178c86151}, !- Handle
  Roof Insulation [21],                   !- Name
  MediumRough,                            !- Roughness
  0.2105,                                 !- Thickness {m}
  0.049,                                  !- Conductivity {W/m-K}
  265,                                    !- Density {kg/m3}
  836.800000000001,                       !- Specific Heat {J/kg-K}
  0.9,                                    !- Thermal Absorptance
  0.7,                                    !- Solar Absorptance
  0.7;                                    !- Visible Absorptance

OS:Construction,
  {d3444edb-41bd-405c-9101-9a5ee4d1d19b}, !- Handle
  ASHRAE 189.1-2009 ExtRoof IEAD ClimateZone 6, !- Name
  ,                                       !- Surface Rendering Name
  {b237ea7e-050b-472d-af51-91d4843ef3c2}, !- Layer 1
  {c1433810-b58f-4e71-b47f-25ab6f6fab7d}, !- Layer 2
  {6c37cd22-b1d1-473d-8851-d0a1279e76c8}; !- Layer 3

OS:StandardsInformation:Construction,
  {5b67920e-1533-435f-8d46-2f9fe5c28e78}, !- Handle
  {d3444edb-41bd-405c-9101-9a5ee4d1d19b}, !- Construction Name
  ExteriorRoof,                           !- Intended Surface Type
  IEAD;                                   !- Standards Construction Type

OS:Material,
  {c1433810-b58f-4e71-b47f-25ab6f6fab7d}, !- Handle
  Roof Insulation [24],                   !- Name
  MediumRough,                            !- Roughness
  0.260100000000001,                      !- Thickness {m}
  0.049,                                  !- Conductivity {W/m-K}
  265,                                    !- Density {kg/m3}
  836.800000000001,                       !- Specific Heat {J/kg-K}
  0.9,                                    !- Thermal Absorptance
  0.7,                                    !- Solar Absorptance
  0.7;                                    !- Visible Absorptance

OS:Construction,
  {fda62bab-7950-4a30-8541-23d80677bfcd}, !- Handle
  ASHRAE 189.1-2009 ExtRoof IEAD ClimateZone 7-8, !- Name
  ,                                       !- Surface Rendering Name
  {b237ea7e-050b-472d-af51-91d4843ef3c2}, !- Layer 1
  {28b8cc3f-821f-48f3-aa6a-7774dcb31204}, !- Layer 2
  {6c37cd22-b1d1-473d-8851-d0a1279e76c8}; !- Layer 3

OS:StandardsInformation:Construction,
  {4a5d2b95-c8ae-4164-9d73-d1d3b14a536d}, !- Handle
  {fda62bab-7950-4a30-8541-23d80677bfcd}, !- Construction Name
  ExteriorRoof,                           !- Intended Surface Type
  IEAD;                                   !- Standards Construction Type

OS:Material,
  {28b8cc3f-821f-48f3-aa6a-7774dcb31204}, !- Handle
  Roof Insulation [26],                   !- Name
  MediumRough,                            !- Roughness
  0.2941,                                 !- Thickness {m}
  0.049,                                  !- Conductivity {W/m-K}
  265,                                    !- Density {kg/m3}
  836.800000000001,                       !- Specific Heat {J/kg-K}
  0.9,                                    !- Thermal Absorptance
  0.7,                                    !- Solar Absorptance
  0.7;                                    !- Visible Absorptance

OS:Construction,
  {3a2065d8-f7d1-438b-82b7-e76ee986fac1}, !- Handle
  ASHRAE 189.1-2009 ExtRoof Metal ClimateZone 1, !- Name
  ,                                       !- Surface Rendering Name
  {bc0c2cbb-9bd6-4029-bf83-9ce3c72bdf42}, !- Layer 1
  {d4f4f0c6-7ea4-4064-a521-8de02df86162}, !- Layer 2
  {6c37cd22-b1d1-473d-8851-d0a1279e76c8}; !- Layer 3

OS:StandardsInformation:Construction,
  {513f553e-1adf-4884-83bc-83506aefd3e0}, !- Handle
  {3a2065d8-f7d1-438b-82b7-e76ee986fac1}, !- Construction Name
  ExteriorRoof,                           !- Intended Surface Type
  Metal;                                  !- Standards Construction Type

OS:Material,
  {bc0c2cbb-9bd6-4029-bf83-9ce3c72bdf42}, !- Handle
  Metal Roofing,                          !- Name
  MediumSmooth,                           !- Roughness
  0.0015,                                 !- Thickness {m}
  45.006,                                 !- Conductivity {W/m-K}
  7680,                                   !- Density {kg/m3}
  418.4,                                  !- Specific Heat {J/kg-K}
  0.9,                                    !- Thermal Absorptance
  0.6,                                    !- Solar Absorptance
  0.6;                                    !- Visible Absorptance

OS:Material,
  {d4f4f0c6-7ea4-4064-a521-8de02df86162}, !- Handle
  Roof Insulation [19],                   !- Name
  MediumRough,                            !- Roughness
  0.1868,                                 !- Thickness {m}
  0.049,                                  !- Conductivity {W/m-K}
  265,                                    !- Density {kg/m3}
  836.800000000001,                       !- Specific Heat {J/kg-K}
  0.9,                                    !- Thermal Absorptance
  0.7,                                    !- Solar Absorptance
  0.7;                                    !- Visible Absorptance

OS:Construction,
  {0394441b-9da7-4ef6-aa83-faf4ff4adff8}, !- Handle
  ASHRAE 189.1-2009 ExtRoof Metal ClimateZone 2-5, !- Name
  ,                                       !- Surface Rendering Name
  {bc0c2cbb-9bd6-4029-bf83-9ce3c72bdf42}, !- Layer 1
  {93672059-8074-4a3f-8634-3233c619a1ce}, !- Layer 2
  {6c37cd22-b1d1-473d-8851-d0a1279e76c8}; !- Layer 3

OS:StandardsInformation:Construction,
  {a0a0ce76-f007-46f7-a0f7-f041ed346fdd}, !- Handle
  {0394441b-9da7-4ef6-aa83-faf4ff4adff8}, !- Construction Name
  ExteriorRoof,                           !- Intended Surface Type
  Metal;                                  !- Standards Construction Type

OS:Material,
  {93672059-8074-4a3f-8634-3233c619a1ce}, !- Handle
  Roof Insulation [22],                   !- Name
  MediumRough,                            !- Roughness
  0.2358,                                 !- Thickness {m}
  0.049,                                  !- Conductivity {W/m-K}
  265,                                    !- Density {kg/m3}
  836.800000000001,                       !- Specific Heat {J/kg-K}
  0.9,                                    !- Thermal Absorptance
  0.7,                                    !- Solar Absorptance
  0.7;                                    !- Visible Absorptance

OS:Construction,
  {512d0ad1-75bd-4a5c-95c5-01894cd83217}, !- Handle
  ASHRAE 189.1-2009 ExtRoof Metal ClimateZone 6, !- Name
  ,                                       !- Surface Rendering Name
  {bc0c2cbb-9bd6-4029-bf83-9ce3c72bdf42}, !- Layer 1
  {9c32a7a6-f87d-49a7-8077-8b45fdedd4c7}, !- Layer 2
  {6c37cd22-b1d1-473d-8851-d0a1279e76c8}; !- Layer 3

OS:StandardsInformation:Construction,
  {0b4440ef-bef3-4ddb-b681-6f93c05fa785}, !- Handle
  {512d0ad1-75bd-4a5c-95c5-01894cd83217}, !- Construction Name
  ExteriorRoof,                           !- Intended Surface Type
  Metal;                                  !- Standards Construction Type

OS:Material,
  {9c32a7a6-f87d-49a7-8077-8b45fdedd4c7}, !- Handle
  Roof Insulation [25],                   !- Name
  MediumRough,                            !- Roughness
  0.263,                                  !- Thickness {m}
  0.049,                                  !- Conductivity {W/m-K}
  265,                                    !- Density {kg/m3}
  836.800000000001,                       !- Specific Heat {J/kg-K}
  0.9,                                    !- Thermal Absorptance
  0.7,                                    !- Solar Absorptance
  0.7;                                    !- Visible Absorptance

OS:Construction,
  {e9456cd9-3904-4703-93fd-f924dd2755d1}, !- Handle
  ASHRAE 189.1-2009 ExtRoof Metal ClimateZone 7-8, !- Name
  ,                                       !- Surface Rendering Name
  {bc0c2cbb-9bd6-4029-bf83-9ce3c72bdf42}, !- Layer 1
  {c63c19f3-9d37-44a9-b9c5-b9215b871438}, !- Layer 2
  {6c37cd22-b1d1-473d-8851-d0a1279e76c8}; !- Layer 3

OS:StandardsInformation:Construction,
  {7bafe3d7-92a4-4f35-b7fe-8029d1a97437}, !- Handle
  {e9456cd9-3904-4703-93fd-f924dd2755d1}, !- Construction Name
  ExteriorRoof,                           !- Intended Surface Type
  Metal;                                  !- Standards Construction Type

OS:Material,
  {c63c19f3-9d37-44a9-b9c5-b9215b871438}, !- Handle
  Roof Insulation [27],                   !- Name
  MediumRough,                            !- Roughness
  0.297000000000001,                      !- Thickness {m}
  0.049,                                  !- Conductivity {W/m-K}
  265,                                    !- Density {kg/m3}
  836.800000000001,                       !- Specific Heat {J/kg-K}
  0.9,                                    !- Thermal Absorptance
  0.7,                                    !- Solar Absorptance
  0.7;                                    !- Visible Absorptance

OS:Construction,
  {5abd65ee-1c26-4b17-9145-a6e6b299638e}, !- Handle
  ASHRAE 189.1-2009 ExtWall Mass ClimateZone 1, !- Name
  ,                                       !- Surface Rendering Name
  {1533f8fc-22c7-4071-a519-3d49cbd7a5f6}, !- Layer 1
  {d6b07a7b-cb2f-48b5-b275-6f1fe642b088}, !- Layer 2
  {6a07797c-cac3-49bf-8069-8e4446e8b90e}, !- Layer 3
  {95433a8e-ffae-41a0-8d03-ed4fa436cadf}; !- Layer 4

OS:StandardsInformation:Construction,
  {3960ee9e-a420-4029-87f1-7d46d3c6aca5}, !- Handle
  {5abd65ee-1c26-4b17-9145-a6e6b299638e}, !- Construction Name
  ExteriorWall,                           !- Intended Surface Type
  Mass;                                   !- Standards Construction Type

OS:Material,
  {1533f8fc-22c7-4071-a519-3d49cbd7a5f6}, !- Handle
  1IN Stucco,                             !- Name
  Smooth,                                 !- Roughness
  0.0253,                                 !- Thickness {m}
  0.691799999999999,                      !- Conductivity {W/m-K}
  1858,                                   !- Density {kg/m3}
  836.999999999999,                       !- Specific Heat {J/kg-K}
  0.9,                                    !- Thermal Absorptance
  0.92,                                   !- Solar Absorptance
  0.92;                                   !- Visible Absorptance

OS:Material,
  {d6b07a7b-cb2f-48b5-b275-6f1fe642b088}, !- Handle
  8IN Concrete HW,                        !- Name
  MediumRough,                            !- Roughness
  0.2033,                                 !- Thickness {m}
  1.72959999999999,                       !- Conductivity {W/m-K}
  2242.99999999999,                       !- Density {kg/m3}
  836.999999999999,                       !- Specific Heat {J/kg-K}
  0.9,                                    !- Thermal Absorptance
  0.65,                                   !- Solar Absorptance
  0.65;                                   !- Visible Absorptance

OS:Material,
  {6a07797c-cac3-49bf-8069-8e4446e8b90e}, !- Handle
  Wall Insulation [31],                   !- Name
  MediumRough,                            !- Roughness
  0.0337000000000001,                     !- Thickness {m}
  0.0432,                                 !- Conductivity {W/m-K}
  91,                                     !- Density {kg/m3}
  836.999999999999,                       !- Specific Heat {J/kg-K}
  0.9,                                    !- Thermal Absorptance
  0.5,                                    !- Solar Absorptance
  0.5;                                    !- Visible Absorptance

OS:Construction,
  {278602b3-1b81-4e2b-9fbf-2506621a3ec6}, !- Handle
  ASHRAE 189.1-2009 ExtWall Mass ClimateZone 2, !- Name
  ,                                       !- Surface Rendering Name
  {1533f8fc-22c7-4071-a519-3d49cbd7a5f6}, !- Layer 1
  {d6b07a7b-cb2f-48b5-b275-6f1fe642b088}, !- Layer 2
  {69410d8e-c9a8-48ec-9b39-acb080f7fb68}, !- Layer 3
  {95433a8e-ffae-41a0-8d03-ed4fa436cadf}; !- Layer 4

OS:StandardsInformation:Construction,
  {336b5762-27dd-4221-b7b1-60bbe6b8a02f}, !- Handle
  {278602b3-1b81-4e2b-9fbf-2506621a3ec6}, !- Construction Name
  ExteriorWall,                           !- Intended Surface Type
  Mass;                                   !- Standards Construction Type

OS:Material,
  {69410d8e-c9a8-48ec-9b39-acb080f7fb68}, !- Handle
  Wall Insulation [35],                   !- Name
  MediumRough,                            !- Roughness
  0.0452,                                 !- Thickness {m}
  0.0432,                                 !- Conductivity {W/m-K}
  91,                                     !- Density {kg/m3}
  836.999999999999,                       !- Specific Heat {J/kg-K}
  0.9,                                    !- Thermal Absorptance
  0.5,                                    !- Solar Absorptance
  0.5;                                    !- Visible Absorptance

OS:Construction,
  {a331562e-24cf-4d59-8484-156f5e66827d}, !- Handle
  ASHRAE 189.1-2009 ExtWall Mass ClimateZone 3, !- Name
  ,                                       !- Surface Rendering Name
  {1533f8fc-22c7-4071-a519-3d49cbd7a5f6}, !- Layer 1
  {d6b07a7b-cb2f-48b5-b275-6f1fe642b088}, !- Layer 2
  {af7e4fa3-a8a2-4197-950f-dc6626bac325}, !- Layer 3
  {95433a8e-ffae-41a0-8d03-ed4fa436cadf}; !- Layer 4

OS:StandardsInformation:Construction,
  {5e1d92f4-2114-4000-9eb0-d3aebcd77be4}, !- Handle
  {a331562e-24cf-4d59-8484-156f5e66827d}, !- Construction Name
  ExteriorWall,                           !- Intended Surface Type
  Mass;                                   !- Standards Construction Type

OS:Material,
  {af7e4fa3-a8a2-4197-950f-dc6626bac325}, !- Handle
  Wall Insulation [36],                   !- Name
  MediumRough,                            !- Roughness
  0.0565999999999999,                     !- Thickness {m}
  0.0432,                                 !- Conductivity {W/m-K}
  91,                                     !- Density {kg/m3}
  836.999999999999,                       !- Specific Heat {J/kg-K}
  0.9,                                    !- Thermal Absorptance
  0.5,                                    !- Solar Absorptance
  0.5;                                    !- Visible Absorptance

OS:Construction,
  {c9e46de9-42ab-49a0-a685-19adffcc1d71}, !- Handle
  ASHRAE 189.1-2009 ExtWall Mass ClimateZone 4, !- Name
  ,                                       !- Surface Rendering Name
  {1533f8fc-22c7-4071-a519-3d49cbd7a5f6}, !- Layer 1
  {d6b07a7b-cb2f-48b5-b275-6f1fe642b088}, !- Layer 2
  {812ebf3b-8360-4e3f-a85b-44f154cced62}, !- Layer 3
  {95433a8e-ffae-41a0-8d03-ed4fa436cadf}; !- Layer 4

OS:StandardsInformation:Construction,
  {1960322b-c6fc-4fef-825b-00ce744c69a7}, !- Handle
  {c9e46de9-42ab-49a0-a685-19adffcc1d71}, !- Construction Name
  ExteriorWall,                           !- Intended Surface Type
  Mass;                                   !- Standards Construction Type

OS:Material,
  {812ebf3b-8360-4e3f-a85b-44f154cced62}, !- Handle
  Wall Insulation [37],                   !- Name
  MediumRough,                            !- Roughness
  0.0680999999999999,                     !- Thickness {m}
  0.0432,                                 !- Conductivity {W/m-K}
  91,                                     !- Density {kg/m3}
  836.999999999999,                       !- Specific Heat {J/kg-K}
  0.9,                                    !- Thermal Absorptance
  0.5,                                    !- Solar Absorptance
  0.5;                                    !- Visible Absorptance

OS:Construction,
  {9b04e0c7-eab7-4998-af82-bb163441cc33}, !- Handle
  ASHRAE 189.1-2009 ExtWall Mass ClimateZone 5, !- Name
  ,                                       !- Surface Rendering Name
  {1533f8fc-22c7-4071-a519-3d49cbd7a5f6}, !- Layer 1
  {d6b07a7b-cb2f-48b5-b275-6f1fe642b088}, !- Layer 2
  {7ed5e3a5-ba61-40d1-9579-888fe9f68fa8}, !- Layer 3
  {95433a8e-ffae-41a0-8d03-ed4fa436cadf}; !- Layer 4

OS:StandardsInformation:Construction,
  {5c03a329-adba-4787-9366-ff481b7b68ca}, !- Handle
  {9b04e0c7-eab7-4998-af82-bb163441cc33}, !- Construction Name
  ExteriorWall,                           !- Intended Surface Type
  Mass;                                   !- Standards Construction Type

OS:Material,
  {7ed5e3a5-ba61-40d1-9579-888fe9f68fa8}, !- Handle
  Wall Insulation [40],                   !- Name
  MediumRough,                            !- Roughness
  0.0793999999999999,                     !- Thickness {m}
  0.0432,                                 !- Conductivity {W/m-K}
  91,                                     !- Density {kg/m3}
  836.999999999999,                       !- Specific Heat {J/kg-K}
  0.9,                                    !- Thermal Absorptance
  0.5,                                    !- Solar Absorptance
  0.5;                                    !- Visible Absorptance

OS:Construction,
  {b2d755d5-cc1c-462c-a765-fb8a178e67a0}, !- Handle
  ASHRAE 189.1-2009 ExtWall Mass ClimateZone 6, !- Name
  ,                                       !- Surface Rendering Name
  {1533f8fc-22c7-4071-a519-3d49cbd7a5f6}, !- Layer 1
  {d6b07a7b-cb2f-48b5-b275-6f1fe642b088}, !- Layer 2
  {a73b934b-d9f2-41c8-9dce-13c658b87c45}, !- Layer 3
  {95433a8e-ffae-41a0-8d03-ed4fa436cadf}; !- Layer 4

OS:StandardsInformation:Construction,
  {0ad6e2bb-1ceb-4d3e-8cea-ad4f3c8056d2}, !- Handle
  {b2d755d5-cc1c-462c-a765-fb8a178e67a0}, !- Construction Name
  ExteriorWall,                           !- Intended Surface Type
  Mass;                                   !- Standards Construction Type

OS:Material,
  {a73b934b-d9f2-41c8-9dce-13c658b87c45}, !- Handle
  Wall Insulation [42],                   !- Name
  MediumRough,                            !- Roughness
  0.0913999999999999,                     !- Thickness {m}
  0.0432,                                 !- Conductivity {W/m-K}
  91,                                     !- Density {kg/m3}
  836.999999999999,                       !- Specific Heat {J/kg-K}
  0.9,                                    !- Thermal Absorptance
  0.5,                                    !- Solar Absorptance
  0.5;                                    !- Visible Absorptance

OS:Construction,
  {4f1c4fcf-2fc2-4354-9b88-08389555795b}, !- Handle
  ASHRAE 189.1-2009 ExtWall Mass ClimateZone 7-8, !- Name
  ,                                       !- Surface Rendering Name
  {1533f8fc-22c7-4071-a519-3d49cbd7a5f6}, !- Layer 1
  {d6b07a7b-cb2f-48b5-b275-6f1fe642b088}, !- Layer 2
  {0552eb45-7d92-4003-967e-8dec900130fe}, !- Layer 3
  {95433a8e-ffae-41a0-8d03-ed4fa436cadf}; !- Layer 4

OS:StandardsInformation:Construction,
  {9943de09-185a-4d81-87bc-2450ff607549}, !- Handle
  {4f1c4fcf-2fc2-4354-9b88-08389555795b}, !- Construction Name
  ExteriorWall,                           !- Intended Surface Type
  Mass;                                   !- Standards Construction Type

OS:Material,
  {0552eb45-7d92-4003-967e-8dec900130fe}, !- Handle
  Wall Insulation [44],                   !- Name
  MediumRough,                            !- Roughness
  0.1104,                                 !- Thickness {m}
  0.0432,                                 !- Conductivity {W/m-K}
  91,                                     !- Density {kg/m3}
  836.999999999999,                       !- Specific Heat {J/kg-K}
  0.9,                                    !- Thermal Absorptance
  0.5,                                    !- Solar Absorptance
  0.5;                                    !- Visible Absorptance

OS:Construction,
  {9e4a593d-ecdf-4dc1-85fe-ad02b9cfaf02}, !- Handle
  ASHRAE 189.1-2009 ExtWall Mass ClimateZone alt-res 1, !- Name
  ,                                       !- Surface Rendering Name
  {1533f8fc-22c7-4071-a519-3d49cbd7a5f6}, !- Layer 1
  {d6b07a7b-cb2f-48b5-b275-6f1fe642b088}, !- Layer 2
  {69410d8e-c9a8-48ec-9b39-acb080f7fb68}, !- Layer 3
  {95433a8e-ffae-41a0-8d03-ed4fa436cadf}; !- Layer 4

OS:StandardsInformation:Construction,
  {9ac0bd9c-93a5-431f-8977-4fedc6c58ed3}, !- Handle
  {9e4a593d-ecdf-4dc1-85fe-ad02b9cfaf02}, !- Construction Name
  ExteriorWall,                           !- Intended Surface Type
  Mass;                                   !- Standards Construction Type

OS:Construction,
  {9977babd-312a-4a93-ad15-b915f95a2226}, !- Handle
  ASHRAE 189.1-2009 ExtWall Mass ClimateZone alt-res 2, !- Name
  ,                                       !- Surface Rendering Name
  {1533f8fc-22c7-4071-a519-3d49cbd7a5f6}, !- Layer 1
  {d6b07a7b-cb2f-48b5-b275-6f1fe642b088}, !- Layer 2
  {af7e4fa3-a8a2-4197-950f-dc6626bac325}, !- Layer 3
  {95433a8e-ffae-41a0-8d03-ed4fa436cadf}; !- Layer 4

OS:StandardsInformation:Construction,
  {1d2d91f4-fb11-4023-b49f-eeeee1c694b5}, !- Handle
  {9977babd-312a-4a93-ad15-b915f95a2226}, !- Construction Name
  ExteriorWall,                           !- Intended Surface Type
  Mass;                                   !- Standards Construction Type

OS:Construction,
  {38ef8298-5c03-4698-aa5b-60fa2cbe3418}, !- Handle
  ASHRAE 189.1-2009 ExtWall Mass ClimateZone alt-res 3, !- Name
  ,                                       !- Surface Rendering Name
  {1533f8fc-22c7-4071-a519-3d49cbd7a5f6}, !- Layer 1
  {d6b07a7b-cb2f-48b5-b275-6f1fe642b088}, !- Layer 2
  {812ebf3b-8360-4e3f-a85b-44f154cced62}, !- Layer 3
  {95433a8e-ffae-41a0-8d03-ed4fa436cadf}; !- Layer 4

OS:StandardsInformation:Construction,
  {c203c610-2804-4616-8484-a0d6b8a0b10d}, !- Handle
  {38ef8298-5c03-4698-aa5b-60fa2cbe3418}, !- Construction Name
  ExteriorWall,                           !- Intended Surface Type
  Mass;                                   !- Standards Construction Type

OS:Construction,
  {c43d2a37-4e18-466d-ac9c-8e9183d935da}, !- Handle
  ASHRAE 189.1-2009 ExtWall Mass ClimateZone alt-res 4, !- Name
  ,                                       !- Surface Rendering Name
  {1533f8fc-22c7-4071-a519-3d49cbd7a5f6}, !- Layer 1
  {d6b07a7b-cb2f-48b5-b275-6f1fe642b088}, !- Layer 2
  {7ed5e3a5-ba61-40d1-9579-888fe9f68fa8}, !- Layer 3
  {95433a8e-ffae-41a0-8d03-ed4fa436cadf}; !- Layer 4

OS:StandardsInformation:Construction,
  {25972686-f755-4197-bc51-31bc062b84a4}, !- Handle
  {c43d2a37-4e18-466d-ac9c-8e9183d935da}, !- Construction Name
  ExteriorWall,                           !- Intended Surface Type
  Mass;                                   !- Standards Construction Type

OS:Construction,
  {a7424884-d923-4f34-9c13-4bba06839843}, !- Handle
  ASHRAE 189.1-2009 ExtWall Mass ClimateZone alt-res 5, !- Name
  ,                                       !- Surface Rendering Name
  {1533f8fc-22c7-4071-a519-3d49cbd7a5f6}, !- Layer 1
  {d6b07a7b-cb2f-48b5-b275-6f1fe642b088}, !- Layer 2
  {a73b934b-d9f2-41c8-9dce-13c658b87c45}, !- Layer 3
  {95433a8e-ffae-41a0-8d03-ed4fa436cadf}; !- Layer 4

OS:StandardsInformation:Construction,
  {e75885bd-2cde-4227-b6a6-584497155b96}, !- Handle
  {a7424884-d923-4f34-9c13-4bba06839843}, !- Construction Name
  ExteriorWall,                           !- Intended Surface Type
  Mass;                                   !- Standards Construction Type

OS:Construction,
  {da8249f2-f139-4e21-bc4a-569b720f76e5}, !- Handle
  ASHRAE 189.1-2009 ExtWall Mass ClimateZone alt-res 6, !- Name
  ,                                       !- Surface Rendering Name
  {1533f8fc-22c7-4071-a519-3d49cbd7a5f6}, !- Layer 1
  {d6b07a7b-cb2f-48b5-b275-6f1fe642b088}, !- Layer 2
  {0552eb45-7d92-4003-967e-8dec900130fe}, !- Layer 3
  {95433a8e-ffae-41a0-8d03-ed4fa436cadf}; !- Layer 4

OS:StandardsInformation:Construction,
  {5701b604-3503-45ce-9290-74d9441538e2}, !- Handle
  {da8249f2-f139-4e21-bc4a-569b720f76e5}, !- Construction Name
  ExteriorWall,                           !- Intended Surface Type
  Mass;                                   !- Standards Construction Type

OS:Construction,
  {ccdcb899-ef3d-4e22-bcd6-15ab30bf7270}, !- Handle
  ASHRAE 189.1-2009 ExtWall Mass ClimateZone alt-res 7, !- Name
  ,                                       !- Surface Rendering Name
  {1533f8fc-22c7-4071-a519-3d49cbd7a5f6}, !- Layer 1
  {d6b07a7b-cb2f-48b5-b275-6f1fe642b088}, !- Layer 2
  {0552eb45-7d92-4003-967e-8dec900130fe}, !- Layer 3
  {95433a8e-ffae-41a0-8d03-ed4fa436cadf}; !- Layer 4

OS:StandardsInformation:Construction,
  {e12143bc-91b5-4b32-8098-b7b800191e28}, !- Handle
  {ccdcb899-ef3d-4e22-bcd6-15ab30bf7270}, !- Construction Name
  ExteriorWall,                           !- Intended Surface Type