
OS:Version,
  {c72f8b47-503a-4786-872f-43ebed148d01}, !- Handle
  1.3.0;                                  !- Version Identifier

OS:Construction,
  {c76b3677-3e87-4eda-a4f2-b7ad2559d6ec}, !- Handle
  ASHRAE 189.1-2009 AtticFloor ClimateZone 1-8, !- Name
  ,                                       !- Surface Rendering Name
  {d1f46103-ee4b-41df-b57f-cd01354609d6}, !- Layer 1
  {edf7b1c6-0fac-4ec2-84b5-bd09197aed6d}, !- Layer 2
  {d1f46103-ee4b-41df-b57f-cd01354609d6}; !- Layer 3

OS:StandardsInformation:Construction,
  {1d6dedf3-4f85-4172-949e-3799dc3a089b}, !- Handle
  {c76b3677-3e87-4eda-a4f2-b7ad2559d6ec}, !- Construction Name
  AtticFloor,                             !- Intended Surface Type
  WoodFramed;                             !- Standards Construction Type

OS:Material,
  {d1f46103-ee4b-41df-b57f-cd01354609d6}, !- Handle
  1/2IN Gypsum,                           !- Name
  Smooth,                                 !- Roughness
  0.0127,                                 !- Thickness {m}
  0.16,                                   !- Conductivity {W/m-K}
  784.9,                                  !- Density {kg/m3}
  830.000000000001,                       !- Specific Heat {J/kg-K}
  0.9,                                    !- Thermal Absorptance
  0.92,                                   !- Solar Absorptance
  0.92;                                   !- Visible Absorptance

OS:Material,
  {edf7b1c6-0fac-4ec2-84b5-bd09197aed6d}, !- Handle
  AtticFloor Insulation,                  !- Name
  MediumRough,                            !- Roughness
  0.2379,                                 !- Thickness {m}
  0.049,                                  !- Conductivity {W/m-K}
  265,                                    !- Density {kg/m3}
  836.800000000001,                       !- Specific Heat {J/kg-K}
  0.9,                                    !- Thermal Absorptance
  0.7,                                    !- Solar Absorptance
  0.7;                                    !- Visible Absorptance

OS:Construction,
  {82d0fe7a-707a-490f-beae-656b8c94e858}, !- Handle
  ASHRAE 189.1-2009 ExtRoof IEAD ClimateZone 1, !- Name
  ,                                       !- Surface Rendering Name
  {74689465-3bde-467f-bf02-5bab25863e99}, !- Layer 1
  {361d7aca-19e8-4072-8978-cabd5d1eddd1}, !- Layer 2
  {c7466130-a5ca-4330-89c3-54ab6ab2cd6e}; !- Layer 3

OS:StandardsInformation:Construction,
  {7bf0460f-0d02-4540-a5f2-28839790b87c}, !- Handle
  {82d0fe7a-707a-490f-beae-656b8c94e858}, !- Construction Name
  ExteriorRoof,                           !- Intended Surface Type
  IEAD;                                   !- Standards Construction Type

OS:Material,
  {74689465-3bde-467f-bf02-5bab25863e99}, !- Handle
  Roof Membrane,                          !- Name
  VeryRough,                              !- Roughness
  0.0095,                                 !- Thickness {m}
  0.16,                                   !- Conductivity {W/m-K}
  1121.29,                                !- Density {kg/m3}
  1460,                                   !- Specific Heat {J/kg-K}
  0.9,                                    !- Thermal Absorptance
  0.7,                                    !- Solar Absorptance
  0.7;                                    !- Visible Absorptance

OS:Material,
  {361d7aca-19e8-4072-8978-cabd5d1eddd1}, !- Handle
  Roof Insulation [18],                   !- Name
  MediumRough,                            !- Roughness
  0.1693,                                 !- Thickness {m}
  0.049,                                  !- Conductivity {W/m-K}
  265,                                    !- Density {kg/m3}
  836.800000000001,                       !- Specific Heat {J/kg-K}
  0.9,                                    !- Thermal Absorptance
  0.7,                                    !- Solar Absorptance
  0.7;                                    !- Visible Absorptance

OS:Material,
  {c7466130-a5ca-4330-89c3-54ab6ab2cd6e}, !- Handle
  Metal Decking,                          !- Name
  MediumSmooth,                           !- Roughness
  0.0015,                                 !- Thickness {m}
  45.006,                                 !- Conductivity {W/m-K}
  7680,                                   !- Density {kg/m3}
  418.4,                                  !- Specific Heat {J/kg-K}
  0.9,                                    !- Thermal Absorptance
  0.7,                                    !- Solar Absorptance
  0.3;                                    !- Visible Absorptance

OS:Construction,
  {99697f0b-f20d-450a-b058-61c1dc4b22fb}, !- Handle
  ASHRAE 189.1-2009 ExtRoof IEAD ClimateZone 2-5, !- Name
  ,                                       !- Surface Rendering Name
  {74689465-3bde-467f-bf02-5bab25863e99}, !- Layer 1
  {cb822ee5-a2ff-475c-b9ec-06b94b2bedc7}, !- Layer 2
  {c7466130-a5ca-4330-89c3-54ab6ab2cd6e}; !- Layer 3

OS:StandardsInformation:Construction,
  {5b02d63e-6723-414d-8bc6-4a41fdf16768}, !- Handle
  {99697f0b-f20d-450a-b058-61c1dc4b22fb}, !- Construction Name
  ExteriorRoof,                           !- Intended Surface Type
  IEAD;                                   !- Standards Construction Type

OS:Material,
  {cb822ee5-a2ff-475c-b9ec-06b94b2bedc7}, !- Handle
  Roof Insulation [21],                   !- Name
  MediumRough,                            !- Roughness
  0.2105,                                 !- Thickness {m}
  0.049,                                  !- Conductivity {W/m-K}
  265,                                    !- Density {kg/m3}
  836.800000000001,                       !- Specific Heat {J/kg-K}
  0.9,                                    !- Thermal Absorptance
  0.7,                                    !- Solar Absorptance
  0.7;                                    !- Visible Absorptance

OS:Construction,
  {8e972255-4b42-4257-aa77-636cbb86c28b}, !- Handle
  ASHRAE 189.1-2009 ExtRoof IEAD ClimateZone 6, !- Name
  ,                                       !- Surface Rendering Name
  {74689465-3bde-467f-bf02-5bab25863e99}, !- Layer 1
  {4e16d6cb-71c3-425f-8618-673f78779bcf}, !- Layer 2
  {c7466130-a5ca-4330-89c3-54ab6ab2cd6e}; !- Layer 3

OS:StandardsInformation:Construction,
  {f6747b17-711e-4bef-8596-500744719501}, !- Handle
  {8e972255-4b42-4257-aa77-636cbb86c28b}, !- Construction Name
  ExteriorRoof,                           !- Intended Surface Type
  IEAD;                                   !- Standards Construction Type

OS:Material,
  {4e16d6cb-71c3-425f-8618-673f78779bcf}, !- Handle
  Roof Insulation [24],                   !- Name
  MediumRough,                            !- Roughness
  0.260100000000001,                      !- Thickness {m}
  0.049,                                  !- Conductivity {W/m-K}
  265,                                    !- Density {kg/m3}
  836.800000000001,                       !- Specific Heat {J/kg-K}
  0.9,                                    !- Thermal Absorptance
  0.7,                                    !- Solar Absorptance
  0.7;                                    !- Visible Absorptance

OS:Construction,
  {01842134-64fe-4c0d-9231-257c0e634063}, !- Handle
  ASHRAE 189.1-2009 ExtRoof IEAD ClimateZone 7-8, !- Name
  ,                                       !- Surface Rendering Name
  {74689465-3bde-467f-bf02-5bab25863e99}, !- Layer 1
  {6a66c163-17ad-46ad-8885-141a37a07612}, !- Layer 2
  {c7466130-a5ca-4330-89c3-54ab6ab2cd6e}; !- Layer 3

OS:StandardsInformation:Construction,
  {3c8647d0-449a-4474-83b6-0313bac1cb34}, !- Handle
  {01842134-64fe-4c0d-9231-257c0e634063}, !- Construction Name
  ExteriorRoof,                           !- Intended Surface Type
  IEAD;                                   !- Standards Construction Type

OS:Material,
  {6a66c163-17ad-46ad-8885-141a37a07612}, !- Handle
  Roof Insulation [26],                   !- Name
  MediumRough,                            !- Roughness
  0.2941,                                 !- Thickness {m}
  0.049,                                  !- Conductivity {W/m-K}
  265,                                    !- Density {kg/m3}
  836.800000000001,                       !- Specific Heat {J/kg-K}
  0.9,                                    !- Thermal Absorptance
  0.7,                                    !- Solar Absorptance
  0.7;                                    !- Visible Absorptance

OS:Construction,
  {bc338c58-bcd3-4a63-a3dc-aa2cdc5ff0d9}, !- Handle
  ASHRAE 189.1-2009 ExtRoof Metal ClimateZone 1, !- Name
  ,                                       !- Surface Rendering Name
  {3e603a26-0a8a-4188-a8cb-38b9521ebbb2}, !- Layer 1
  {aa61503a-2405-43cd-8b63-4d3e401c1467}; !- Layer 2

OS:StandardsInformation:Construction,
  {edbbbf84-2de6-4b8f-97d9-e65821b56717}, !- Handle
  {bc338c58-bcd3-4a63-a3dc-aa2cdc5ff0d9}, !- Construction Name
  ExteriorRoof,                           !- Intended Surface Type
  Metal;                                  !- Standards Construction Type

OS:Material,
  {3e603a26-0a8a-4188-a8cb-38b9521ebbb2}, !- Handle
  Metal Roofing,                          !- Name
  MediumSmooth,                           !- Roughness
  0.0015,                                 !- Thickness {m}
  45.006,                                 !- Conductivity {W/m-K}
  7680,                                   !- Density {kg/m3}
  418.4,                                  !- Specific Heat {J/kg-K}
  0.9,                                    !- Thermal Absorptance
  0.3,                                    !- Solar Absorptance
  0.3;                                    !- Visible Absorptance

OS:Material,
  {aa61503a-2405-43cd-8b63-4d3e401c1467}, !- Handle
  Roof Insulation [19],                   !- Name
  MediumRough,                            !- Roughness
  0.1868,                                 !- Thickness {m}
  0.049,                                  !- Conductivity {W/m-K}
  265,                                    !- Density {kg/m3}
  836.800000000001,                       !- Specific Heat {J/kg-K}
  0.9,                                    !- Thermal Absorptance
  0.7,                                    !- Solar Absorptance
  0.7;                                    !- Visible Absorptance

OS:Construction,
  {cb0b3cd8-a440-4652-a458-0c44f4e9947b}, !- Handle
  ASHRAE 189.1-2009 ExtRoof Metal ClimateZone 2-5, !- Name
  ,                                       !- Surface Rendering Name
  {3e603a26-0a8a-4188-a8cb-38b9521ebbb2}, !- Layer 1
  {151823bb-4d68-4749-a426-a99d1ec6bf43}; !- Layer 2

OS:StandardsInformation:Construction,
  {2eb73176-f84f-4854-a5c0-2b01fb74d682}, !- Handle
  {cb0b3cd8-a440-4652-a458-0c44f4e9947b}, !- Construction Name
  ExteriorRoof,                           !- Intended Surface Type
  Metal;                                  !- Standards Construction Type

OS:Material,
  {151823bb-4d68-4749-a426-a99d1ec6bf43}, !- Handle
  Roof Insulation [22],                   !- Name
  MediumRough,                            !- Roughness
  0.2358,                                 !- Thickness {m}
  0.049,                                  !- Conductivity {W/m-K}
  265,                                    !- Density {kg/m3}
  836.800000000001,                       !- Specific Heat {J/kg-K}
  0.9,                                    !- Thermal Absorptance
  0.7,                                    !- Solar Absorptance
  0.7;                                    !- Visible Absorptance

OS:Construction,
  {d15b90e7-c1b1-4875-97d6-895bd2ec74f3}, !- Handle
  ASHRAE 189.1-2009 ExtRoof Metal ClimateZone 6, !- Name
  ,                                       !- Surface Rendering Name
  {3e603a26-0a8a-4188-a8cb-38b9521ebbb2}, !- Layer 1
  {d5a753e1-855b-46c0-9acb-2829e64b077b}; !- Layer 2

OS:StandardsInformation:Construction,
  {ce96cbf5-c316-4a96-a719-5a324134a27e}, !- Handle
  {d15b90e7-c1b1-4875-97d6-895bd2ec74f3}, !- Construction Name
  ExteriorRoof,                           !- Intended Surface Type
  Metal;                                  !- Standards Construction Type

OS:Material,
  {d5a753e1-855b-46c0-9acb-2829e64b077b}, !- Handle
  Roof Insulation [25],                   !- Name
  MediumRough,                            !- Roughness
  0.263,                                  !- Thickness {m}
  0.049,                                  !- Conductivity {W/m-K}
  265,                                    !- Density {kg/m3}
  836.800000000001,                       !- Specific Heat {J/kg-K}
  0.9,                                    !- Thermal Absorptance
  0.7,                                    !- Solar Absorptance
  0.7;                                    !- Visible Absorptance

OS:Construction,
  {cd6a1b82-4a04-412e-9e61-1ebcd292b38d}, !- Handle
  ASHRAE 189.1-2009 ExtRoof Metal ClimateZone 7-8, !- Name
  ,                                       !- Surface Rendering Name
  {3e603a26-0a8a-4188-a8cb-38b9521ebbb2}, !- Layer 1
  {c7764af9-bdd6-4ced-a7d4-2dee0dcceead}; !- Layer 2

OS:StandardsInformation:Construction,
  {88af13f3-1eff-4a20-9f9a-dac5ec0367b7}, !- Handle
  {cd6a1b82-4a04-412e-9e61-1ebcd292b38d}, !- Construction Name
  ExteriorRoof,                           !- Intended Surface Type
  Metal;                                  !- Standards Construction Type

OS:Material,
  {c7764af9-bdd6-4ced-a7d4-2dee0dcceead}, !- Handle
  Roof Insulation [27],                   !- Name
  MediumRough,                            !- Roughness
  0.297000000000001,                      !- Thickness {m}
  0.049,                                  !- Conductivity {W/m-K}
  265,                                    !- Density {kg/m3}
  836.800000000001,                       !- Specific Heat {J/kg-K}
  0.9,                                    !- Thermal Absorptance
  0.7,                                    !- Solar Absorptance
  0.7;                                    !- Visible Absorptance

OS:Construction,
  {d05539bf-a705-4ffc-958f-3aa1a8fc641c}, !- Handle
  ASHRAE 189.1-2009 ExtWall Mass ClimateZone 1, !- Name
  ,                                       !- Surface Rendering Name
  {512284c4-0be5-4bf6-a9ae-83f7bda99642}, !- Layer 1
  {1fa52db3-3292-4d00-8a34-58cc8d9f03c9}, !- Layer 2
  {906afea8-bd88-4d62-a3c0-a4bfb7ae8a10}, !- Layer 3
  {d1f46103-ee4b-41df-b57f-cd01354609d6}; !- Layer 4

OS:StandardsInformation:Construction,
  {3b3fbbd2-c157-4e09-ae52-b9b920cdf557}, !- Handle
  {d05539bf-a705-4ffc-958f-3aa1a8fc641c}, !- Construction Name
  ExteriorWall,                           !- Intended Surface Type
  Mass;                                   !- Standards Construction Type

OS:Material,
  {512284c4-0be5-4bf6-a9ae-83f7bda99642}, !- Handle
  1IN Stucco,                             !- Name
  Smooth,                                 !- Roughness
  0.0253,                                 !- Thickness {m}
  0.691799999999999,                      !- Conductivity {W/m-K}
  1858,                                   !- Density {kg/m3}
  836.999999999999,                       !- Specific Heat {J/kg-K}
  0.9,                                    !- Thermal Absorptance
  0.92,                                   !- Solar Absorptance
  0.92;                                   !- Visible Absorptance

OS:Material,
  {1fa52db3-3292-4d00-8a34-58cc8d9f03c9}, !- Handle
  8IN Concrete HW,                        !- Name
  MediumRough,                            !- Roughness
  0.2033,                                 !- Thickness {m}
  1.72959999999999,                       !- Conductivity {W/m-K}
  2242.99999999999,                       !- Density {kg/m3}
  836.999999999999,                       !- Specific Heat {J/kg-K}
  0.9,                                    !- Thermal Absorptance
  0.65,                                   !- Solar Absorptance
  0.65;                                   !- Visible Absorptance

OS:Material,
  {906afea8-bd88-4d62-a3c0-a4bfb7ae8a10}, !- Handle
  Wall Insulation [31],                   !- Name
  MediumRough,                            !- Roughness
  0.0337000000000001,                     !- Thickness {m}
  0.0432,                                 !- Conductivity {W/m-K}
  91,                                     !- Density {kg/m3}
  836.999999999999,                       !- Specific Heat {J/kg-K}
  0.9,                                    !- Thermal Absorptance
  0.5,                                    !- Solar Absorptance
  0.5;                                    !- Visible Absorptance

OS:Construction,
  {2f438959-e27a-4b7d-9f67-5b69fda186be}, !- Handle
  ASHRAE 189.1-2009 ExtWall Mass ClimateZone 2, !- Name
  ,                                       !- Surface Rendering Name
  {512284c4-0be5-4bf6-a9ae-83f7bda99642}, !- Layer 1
  {1fa52db3-3292-4d00-8a34-58cc8d9f03c9}, !- Layer 2
  {bc50df22-8698-47b2-a06c-933eb1e71847}, !- Layer 3
  {d1f46103-ee4b-41df-b57f-cd01354609d6}; !- Layer 4

OS:StandardsInformation:Construction,
  {c0cbbb4a-f724-400a-a853-9949b888a2ce}, !- Handle
  {2f438959-e27a-4b7d-9f67-5b69fda186be}, !- Construction Name
  ExteriorWall,                           !- Intended Surface Type
  Mass;                                   !- Standards Construction Type

OS:Material,
  {bc50df22-8698-47b2-a06c-933eb1e71847}, !- Handle
  Wall Insulation [35],                   !- Name
  MediumRough,                            !- Roughness
  0.0452,                                 !- Thickness {m}
  0.0432,                                 !- Conductivity {W/m-K}
  91,                                     !- Density {kg/m3}
  836.999999999999,                       !- Specific Heat {J/kg-K}
  0.9,                                    !- Thermal Absorptance
  0.5,                                    !- Solar Absorptance
  0.5;                                    !- Visible Absorptance

OS:Construction,
  {c21fd262-06ce-4d4c-bf8f-89fbb00fa141}, !- Handle
  ASHRAE 189.1-2009 ExtWall Mass ClimateZone 3, !- Name
  ,                                       !- Surface Rendering Name
  {512284c4-0be5-4bf6-a9ae-83f7bda99642}, !- Layer 1
  {1fa52db3-3292-4d00-8a34-58cc8d9f03c9}, !- Layer 2
  {6763d1d4-176c-45f8-9410-720ec261e94b}, !- Layer 3
  {d1f46103-ee4b-41df-b57f-cd01354609d6}; !- Layer 4

OS:StandardsInformation:Construction,
  {bebd58fa-df79-4ea7-899f-ec8b86f59ef3}, !- Handle
  {c21fd262-06ce-4d4c-bf8f-89fbb00fa141}, !- Construction Name
  ExteriorWall,                           !- Intended Surface Type
  Mass;                                   !- Standards Construction Type

OS:Material,
  {6763d1d4-176c-45f8-9410-720ec261e94b}, !- Handle
  Wall Insulation [36],                   !- Name
  MediumRough,                            !- Roughness
  0.0565999999999999,                     !- Thickness {m}
  0.0432,                                 !- Conductivity {W/m-K}
  91,                                     !- Density {kg/m3}
  836.999999999999,                       !- Specific Heat {J/kg-K}
  0.9,                                    !- Thermal Absorptance
  0.5,                                    !- Solar Absorptance
  0.5;                                    !- Visible Absorptance

OS:Construction,
  {800584f0-8b06-4cf5-8134-f45aefdf1e81}, !- Handle
  ASHRAE 189.1-2009 ExtWall Mass ClimateZone 4, !- Name
  ,                                       !- Surface Rendering Name
  {512284c4-0be5-4bf6-a9ae-83f7bda99642}, !- Layer 1
  {1fa52db3-3292-4d00-8a34-58cc8d9f03c9}, !- Layer 2
  {6a15649c-630a-403f-b5a0-a439308b8cc2}, !- Layer 3
  {d1f46103-ee4b-41df-b57f-cd01354609d6}; !- Layer 4

OS:StandardsInformation:Construction,
  {5eddd20c-18f1-42d6-9e58-ac4f0926daff}, !- Handle
  {800584f0-8b06-4cf5-8134-f45aefdf1e81}, !- Construction Name
  ExteriorWall,                           !- Intended Surface Type
  Mass;                                   !- Standards Construction Type

OS:Material,
  {6a15649c-630a-403f-b5a0-a439308b8cc2}, !- Handle
  Wall Insulation [37],                   !- Name
  MediumRough,                            !- Roughness
  0.0680999999999999,                     !- Thickness {m}
  0.0432,                                 !- Conductivity {W/m-K}
  91,                                     !- Density {kg/m3}
  836.999999999999,                       !- Specific Heat {J/kg-K}
  0.9,                                    !- Thermal Absorptance
  0.5,                                    !- Solar Absorptance
  0.5;                                    !- Visible Absorptance

OS:Construction,
  {8a07cecb-cd9d-47c5-b437-7ec8e6507d37}, !- Handle
  ASHRAE 189.1-2009 ExtWall Mass ClimateZone 5, !- Name
  ,                                       !- Surface Rendering Name
  {512284c4-0be5-4bf6-a9ae-83f7bda99642}, !- Layer 1
  {1fa52db3-3292-4d00-8a34-58cc8d9f03c9}, !- Layer 2
  {27f93b7b-ebd2-402e-b15a-868a0b103b07}, !- Layer 3
  {d1f46103-ee4b-41df-b57f-cd01354609d6}; !- Layer 4

OS:StandardsInformation:Construction,
  {9f3bccd1-627e-4f4a-a885-8739bdbe4510}, !- Handle
  {8a07cecb-cd9d-47c5-b437-7ec8e6507d37}, !- Construction Name
  ExteriorWall,                           !- Intended Surface Type
  Mass;                                   !- Standards Construction Type

OS:Material,
  {27f93b7b-ebd2-402e-b15a-868a0b103b07}, !- Handle
  Wall Insulation [40],                   !- Name
  MediumRough,                            !- Roughness
  0.0793999999999999,                     !- Thickness {m}
  0.0432,                                 !- Conductivity {W/m-K}
  91,                                     !- Density {kg/m3}
  836.999999999999,                       !- Specific Heat {J/kg-K}
  0.9,                                    !- Thermal Absorptance
  0.5,                                    !- Solar Absorptance
  0.5;                                    !- Visible Absorptance

OS:Construction,
  {daf1d44d-574c-45ff-8a57-f910be8fb276}, !- Handle
  ASHRAE 189.1-2009 ExtWall Mass ClimateZone 6, !- Name
  ,                                       !- Surface Rendering Name
  {512284c4-0be5-4bf6-a9ae-83f7bda99642}, !- Layer 1
  {1fa52db3-3292-4d00-8a34-58cc8d9f03c9}, !- Layer 2
  {6cff717e-2654-41ef-bf27-4e464593ce1a}, !- Layer 3
  {d1f46103-ee4b-41df-b57f-cd01354609d6}; !- Layer 4

OS:StandardsInformation:Construction,
  {e0d9d597-f6d1-46fc-a8ff-0ab58dc0e423}, !- Handle
  {daf1d44d-574c-45ff-8a57-f910be8fb276}, !- Construction Name
  ExteriorWall,                           !- Intended Surface Type
  Mass;                                   !- Standards Construction Type

OS:Material,
  {6cff717e-2654-41ef-bf27-4e464593ce1a}, !- Handle
  Wall Insulation [42],                   !- Name
  MediumRough,                            !- Roughness
  0.0913999999999999,                     !- Thickness {m}
  0.0432,                                 !- Conductivity {W/m-K}
  91,                                     !- Density {kg/m3}
  836.999999999999,                       !- Specific Heat {J/kg-K}
  0.9,                                    !- Thermal Absorptance
  0.5,                                    !- Solar Absorptance
  0.5;                                    !- Visible Absorptance

OS:Construction,
  {55ca6ef2-b761-4283-a88f-f33ce3b3f33d}, !- Handle
  ASHRAE 189.1-2009 ExtWall Mass ClimateZone 7-8, !- Name
  ,                                       !- Surface Rendering Name
  {512284c4-0be5-4bf6-a9ae-83f7bda99642}, !- Layer 1
  {1fa52db3-3292-4d00-8a34-58cc8d9f03c9}, !- Layer 2
  {89a07e14-af28-4631-af55-c349f8cb9e92}, !- Layer 3
  {d1f46103-ee4b-41df-b57f-cd01354609d6}; !- Layer 4

OS:StandardsInformation:Construction,
  {da80b0fc-2ca0-4e4c-b333-ef28e6c54139}, !- Handle
  {55ca6ef2-b761-4283-a88f-f33ce3b3f33d}, !- Construction Name
  ExteriorWall,                           !- Intended Surface Type
  Mass;                                   !- Standards Construction Type

OS:Material,
  {89a07e14-af28-4631-af55-c349f8cb9e92}, !- Handle
  Wall Insulation [44],                   !- Name
  MediumRough,                            !- Roughness
  0.1104,                                 !- Thickness {m}
  0.0432,                                 !- Conductivity {W/m-K}
  91,                                     !- Density {kg/m3}
  836.999999999999,                       !- Specific Heat {J/kg-K}
  0.9,                                    !- Thermal Absorptance
  0.5,                                    !- Solar Absorptance
  0.5;                                    !- Visible Absorptance

OS:Construction,
  {877cfeed-2500-4ca6-b699-97f5e3306870}, !- Handle
  ASHRAE 189.1-2009 ExtWall Mass ClimateZone alt-res 1, !- Name
  ,                                       !- Surface Rendering Name
  {512284c4-0be5-4bf6-a9ae-83f7bda99642}, !- Layer 1
  {1fa52db3-3292-4d00-8a34-58cc8d9f03c9}, !- Layer 2
  {bc50df22-8698-47b2-a06c-933eb1e71847}, !- Layer 3
  {d1f46103-ee4b-41df-b57f-cd01354609d6}; !- Layer 4

OS:StandardsInformation:Construction,
  {cf8fb996-1015-4801-87ac-2465e07729d9}, !- Handle
  {877cfeed-2500-4ca6-b699-97f5e3306870}, !- Construction Name
  ExteriorWall,                           !- Intended Surface Type
  Mass;                                   !- Standards Construction Type

OS:Construction,
  {c4efda0d-c8a3-4517-864f-1329a95dd08e}, !- Handle
  ASHRAE 189.1-2009 ExtWall Mass ClimateZone alt-res 2, !- Name
  ,                                       !- Surface Rendering Name
  {512284c4-0be5-4bf6-a9ae-83f7bda99642}, !- Layer 1
  {1fa52db3-3292-4d00-8a34-58cc8d9f03c9}, !- Layer 2
  {6763d1d4-176c-45f8-9410-720ec261e94b}, !- Layer 3
  {d1f46103-ee4b-41df-b57f-cd01354609d6}; !- Layer 4

OS:StandardsInformation:Construction,
  {78938c9e-5bd9-4704-8487-55b08254fed6}, !- Handle
  {c4efda0d-c8a3-4517-864f-1329a95dd08e}, !- Construction Name
  ExteriorWall,                           !- Intended Surface Type
  Mass;                                   !- Standards Construction Type

OS:Construction,
  {d54a6fd9-8fef-4eb0-b24f-89853c553eaa}, !- Handle
  ASHRAE 189.1-2009 ExtWall Mass ClimateZone alt-res 3, !- Name
  ,                                       !- Surface Rendering Name
  {512284c4-0be5-4bf6-a9ae-83f7bda99642}, !- Layer 1
  {1fa52db3-3292-4d00-8a34-58cc8d9f03c9}, !- Layer 2
  {6a15649c-630a-403f-b5a0-a439308b8cc2}, !- Layer 3
  {d1f46103-ee4b-41df-b57f-cd01354609d6}; !- Layer 4

OS:StandardsInformation:Construction,
  {f0cd0630-26c9-4025-98ab-2f6431e3e97b}, !- Handle
  {d54a6fd9-8fef-4eb0-b24f-89853c553eaa}, !- Construction Name
  ExteriorWall,                           !- Intended Surface Type
  Mass;                                   !- Standards Construction Type

OS:Construction,
  {8894a0bd-57d2-40ae-922f-db5d2350c0c3}, !- Handle
  ASHRAE 189.1-2009 ExtWall Mass ClimateZone alt-res 4, !- Name
  ,                                       !- Surface Rendering Name
  {512284c4-0be5-4bf6-a9ae-83f7bda99642}, !- Layer 1
  {1fa52db3-3292-4d00-8a34-58cc8d9f03c9}, !- Layer 2
  {27f93b7b-ebd2-402e-b15a-868a0b103b07}, !- Layer 3
  {d1f46103-ee4b-41df-b57f-cd01354609d6}; !- Layer 4

OS:StandardsInformation:Construction,
  {cc5db973-04d5-43fe-980b-6ba5d5e894da}, !- Handle
  {8894a0bd-57d2-40ae-922f-db5d2350c0c3}, !- Construction Name
  ExteriorWall,                           !- Intended Surface Type
  Mass;                                   !- Standards Construction Type

OS:Construction,
  {0692e497-d987-433e-b4a3-67bb4e66091e}, !- Handle
  ASHRAE 189.1-2009 ExtWall Mass ClimateZone alt-res 5, !- Name
  ,                                       !- Surface Rendering Name
  {512284c4-0be5-4bf6-a9ae-83f7bda99642}, !- Layer 1
  {1fa52db3-3292-4d00-8a34-58cc8d9f03c9}, !- Layer 2
  {6cff717e-2654-41ef-bf27-4e464593ce1a}, !- Layer 3
  {d1f46103-ee4b-41df-b57f-cd01354609d6}; !- Layer 4

OS:StandardsInformation:Construction,
  {d6df58ec-82e9-4126-a524-ee027235f5a4}, !- Handle
  {0692e497-d987-433e-b4a3-67bb4e66091e}, !- Construction Name
  ExteriorWall,                           !- Intended Surface Type
  Mass;                                   !- Standards Construction Type

OS:Construction,
  {7f211f3b-3afb-4c7f-b760-bcdaa6c3b3ee}, !- Handle
  ASHRAE 189.1-2009 ExtWall Mass ClimateZone alt-res 6, !- Name
  ,                                       !- Surface Rendering Name
  {512284c4-0be5-4bf6-a9ae-83f7bda99642}, !- Layer 1
  {1fa52db3-3292-4d00-8a34-58cc8d9f03c9}, !- Layer 2
  {89a07e14-af28-4631-af55-c349f8cb9e92}, !- Layer 3
  {d1f46103-ee4b-41df-b57f-cd01354609d6}; !- Layer 4

OS:StandardsInformation:Construction,
  {a1c3878d-76fc-43cb-ab31-b56811863878}, !- Handle
  {7f211f3b-3afb-4c7f-b760-bcdaa6c3b3ee}, !- Construction Name
  ExteriorWall,                           !- Intended Surface Type
  Mass;                                   !- Standards Construction Type

OS:Construction,
  {bb1eaa6e-8e74-4717-8a2a-1cac7a94b69c}, !- Handle
  ASHRAE 189.1-2009 ExtWall Mass ClimateZone alt-res 7, !- Name
  ,                                       !- Surface Rendering Name
  {512284c4-0be5-4bf6-a9ae-83f7bda99642}, !- Layer 1
  {1fa52db3-3292-4d00-8a34-58cc8d9f03c9}, !- Layer 2
  {89a07e14-af28-4631-af55-c349f8cb9e92}, !- Layer 3
  {d1f46103-ee4b-41df-b57f-cd01354609d6}; !- Layer 4

OS:StandardsInformation:Construction,
  {7adc1e3b-3cc6-4254-b319-cf44d603a8c2}, !- Handle
  {bb1eaa6e-8e74-4717-8a2a-1cac7a94b69c}, !- Construction Name
  ExteriorWall,                           !- Intended Surface Type
  Mass;                                   !- Standards Construction Type

OS:Construction,
  {3215e18d-8992-4040-9ad9-9c340cb7074c}, !- Handle
  ASHRAE 189.1-2009 ExtWall Mass ClimateZone alt-res 8, !- Name