
OS:Version,
  {03d0f81b-bffa-47e0-8665-8c46cde8073f}, !- Handle
  1.2.3;                                  !- Version Identifier

OS:Construction,
  {77d94e44-9bf4-4788-884c-97d40a5a10ef}, !- Handle
  ASHRAE 189.1-2009 AtticFloor ClimateZone 1-8, !- Name
  ,                                       !- Surface Rendering Name
  {6f6bdc51-c1bf-44f7-9d2a-7cec41d7b35b}, !- Layer 1
  {f7839066-d62b-4447-972e-69cb09a10fa7}, !- Layer 2
  {6f6bdc51-c1bf-44f7-9d2a-7cec41d7b35b}; !- Layer 3

OS:StandardsInformation:Construction,
  {7ca5b38a-e032-42cc-83ab-cecd2f32df3f}, !- Handle
  {77d94e44-9bf4-4788-884c-97d40a5a10ef}, !- Construction Name
  AtticFloor,                             !- Intended Surface Type
  ASHRAE 189.1-2009;                      !- Standards Construction Type

OS:Material,
  {6f6bdc51-c1bf-44f7-9d2a-7cec41d7b35b}, !- Handle
  1/2IN Gypsum,                           !- Name
  Smooth,                                 !- Roughness
  0.0127,                                 !- Thickness {m}
  0.16,                                   !- Conductivity {W/m-K}
  784.9,                                  !- Density {kg/m3}
  830.000000000001,                       !- Specific Heat {J/kg-K}
  0.9,                                    !- Thermal Absorptance
  0.92,                                   !- Solar Absorptance
  0.92;                                   !- Visible Absorptance

OS:Material,
  {f7839066-d62b-4447-972e-69cb09a10fa7}, !- Handle
  AtticFloor Insulation,                  !- Name
  MediumRough,                            !- Roughness
  0.2379,                                 !- Thickness {m}
  0.049,                                  !- Conductivity {W/m-K}
  265,                                    !- Density {kg/m3}
  836.800000000001,                       !- Specific Heat {J/kg-K}
  0.9,                                    !- Thermal Absorptance
  0.7,                                    !- Solar Absorptance
  0.7;                                    !- Visible Absorptance

OS:Construction,
  {0605586c-62aa-4160-a7dd-8d53d9ad0c3d}, !- Handle
  ASHRAE 189.1-2009 ExtRoof IEAD ClimateZone 1, !- Name
  ,                                       !- Surface Rendering Name
  {0fe28284-2574-4d57-ae8d-e671d1dd81e7}, !- Layer 1
  {0a1410f9-ae22-44ef-a48c-8490afa5db4b}, !- Layer 2
  {f7bd7ec7-a700-46ec-ba22-f3984856d8ad}; !- Layer 3

OS:StandardsInformation:Construction,
  {4667592c-8e0f-410c-8149-64401019d6bb}, !- Handle
  {0605586c-62aa-4160-a7dd-8d53d9ad0c3d}, !- Construction Name
  ExteriorRoof,                           !- Intended Surface Type
  ASHRAE 189.1-2009;                      !- Standards Construction Type

OS:Material,
  {0fe28284-2574-4d57-ae8d-e671d1dd81e7}, !- Handle
  Roof Membrane,                          !- Name
  VeryRough,                              !- Roughness
  0.0095,                                 !- Thickness {m}
  0.16,                                   !- Conductivity {W/m-K}
  1121.29,                                !- Density {kg/m3}
  1460,                                   !- Specific Heat {J/kg-K}
  0.9,                                    !- Thermal Absorptance
  0.7,                                    !- Solar Absorptance
  0.7;                                    !- Visible Absorptance

OS:Material,
  {0a1410f9-ae22-44ef-a48c-8490afa5db4b}, !- Handle
  Roof Insulation [18],                   !- Name
  MediumRough,                            !- Roughness
  0.1693,                                 !- Thickness {m}
  0.049,                                  !- Conductivity {W/m-K}
  265,                                    !- Density {kg/m3}
  836.800000000001,                       !- Specific Heat {J/kg-K}
  0.9,                                    !- Thermal Absorptance
  0.7,                                    !- Solar Absorptance
  0.7;                                    !- Visible Absorptance

OS:Material,
  {f7bd7ec7-a700-46ec-ba22-f3984856d8ad}, !- Handle
  Metal Decking,                          !- Name
  MediumSmooth,                           !- Roughness
  0.0015,                                 !- Thickness {m}
  45.006,                                 !- Conductivity {W/m-K}
  7680,                                   !- Density {kg/m3}
  418.4,                                  !- Specific Heat {J/kg-K}
  0.9,                                    !- Thermal Absorptance
  0.7,                                    !- Solar Absorptance
  0.3;                                    !- Visible Absorptance

OS:Construction,
  {1f1e588d-9bd2-44b9-bebf-2ee781a3b55e}, !- Handle
  ASHRAE 189.1-2009 ExtRoof IEAD ClimateZone 2-5, !- Name
  ,                                       !- Surface Rendering Name
  {0fe28284-2574-4d57-ae8d-e671d1dd81e7}, !- Layer 1
  {0d323050-2367-46f8-a9f5-2cbe9ac2dd30}, !- Layer 2
  {f7bd7ec7-a700-46ec-ba22-f3984856d8ad}; !- Layer 3

OS:StandardsInformation:Construction,
  {4f3fc4e9-2e7b-4fc8-96d2-6b4d2f1ef46a}, !- Handle
  {1f1e588d-9bd2-44b9-bebf-2ee781a3b55e}, !- Construction Name
  ExteriorRoof,                           !- Intended Surface Type
  ASHRAE 189.1-2009;                      !- Standards Construction Type

OS:Material,
  {0d323050-2367-46f8-a9f5-2cbe9ac2dd30}, !- Handle
  Roof Insulation [21],                   !- Name
  MediumRough,                            !- Roughness
  0.2105,                                 !- Thickness {m}
  0.049,                                  !- Conductivity {W/m-K}
  265,                                    !- Density {kg/m3}
  836.800000000001,                       !- Specific Heat {J/kg-K}
  0.9,                                    !- Thermal Absorptance
  0.7,                                    !- Solar Absorptance
  0.7;                                    !- Visible Absorptance

OS:Construction,
  {47903f7b-f5d6-4c1b-9927-8d883c3754cc}, !- Handle
  ASHRAE 189.1-2009 ExtRoof IEAD ClimateZone 6, !- Name
  ,                                       !- Surface Rendering Name
  {0fe28284-2574-4d57-ae8d-e671d1dd81e7}, !- Layer 1
  {92296e69-2599-4721-9abc-05f4fbf48116}, !- Layer 2
  {f7bd7ec7-a700-46ec-ba22-f3984856d8ad}; !- Layer 3

OS:StandardsInformation:Construction,
  {03885447-3d0a-4c94-96a4-950dc0662a7c}, !- Handle
  {47903f7b-f5d6-4c1b-9927-8d883c3754cc}, !- Construction Name
  ExteriorRoof,                           !- Intended Surface Type
  ASHRAE 189.1-2009;                      !- Standards Construction Type

OS:Material,
  {92296e69-2599-4721-9abc-05f4fbf48116}, !- Handle
  Roof Insulation [24],                   !- Name
  MediumRough,                            !- Roughness
  0.260100000000001,                      !- Thickness {m}
  0.049,                                  !- Conductivity {W/m-K}
  265,                                    !- Density {kg/m3}
  836.800000000001,                       !- Specific Heat {J/kg-K}
  0.9,                                    !- Thermal Absorptance
  0.7,                                    !- Solar Absorptance
  0.7;                                    !- Visible Absorptance

OS:Construction,
  {00dff5af-9d36-48de-8d4c-143a34dfd7c8}, !- Handle
  ASHRAE 189.1-2009 ExtRoof IEAD ClimateZone 7-8, !- Name
  ,                                       !- Surface Rendering Name
  {0fe28284-2574-4d57-ae8d-e671d1dd81e7}, !- Layer 1
  {0ec6e99a-548d-487a-b79c-1b0838259671}, !- Layer 2
  {f7bd7ec7-a700-46ec-ba22-f3984856d8ad}; !- Layer 3

OS:StandardsInformation:Construction,
  {569ddba9-d777-459b-9480-074164eb37fd}, !- Handle
  {00dff5af-9d36-48de-8d4c-143a34dfd7c8}, !- Construction Name
  ExteriorRoof,                           !- Intended Surface Type
  ASHRAE 189.1-2009;                      !- Standards Construction Type

OS:Material,
  {0ec6e99a-548d-487a-b79c-1b0838259671}, !- Handle
  Roof Insulation [26],                   !- Name
  MediumRough,                            !- Roughness
  0.2941,                                 !- Thickness {m}
  0.049,                                  !- Conductivity {W/m-K}
  265,                                    !- Density {kg/m3}
  836.800000000001,                       !- Specific Heat {J/kg-K}
  0.9,                                    !- Thermal Absorptance
  0.7,                                    !- Solar Absorptance
  0.7;                                    !- Visible Absorptance

OS:Construction,
  {23ce4268-481e-48ae-bf58-4114fca17561}, !- Handle
  ASHRAE 189.1-2009 ExtRoof Metal ClimateZone 1, !- Name
  ,                                       !- Surface Rendering Name
  {05cbd063-901d-4d81-9ad0-9ca15da101e5}, !- Layer 1
  {5dfd001c-8d2c-45bc-849c-c24f2765078a}; !- Layer 2

OS:StandardsInformation:Construction,
  {6f2916df-89c8-4195-b7d5-86a3d532c27a}, !- Handle
  {23ce4268-481e-48ae-bf58-4114fca17561}, !- Construction Name
  ExteriorRoof,                           !- Intended Surface Type
  ASHRAE 189.1-2009;                      !- Standards Construction Type

OS:Material,
  {05cbd063-901d-4d81-9ad0-9ca15da101e5}, !- Handle
  Metal Roofing,                          !- Name
  MediumSmooth,                           !- Roughness
  0.0015,                                 !- Thickness {m}
  45.006,                                 !- Conductivity {W/m-K}
  7680,                                   !- Density {kg/m3}
  418.4,                                  !- Specific Heat {J/kg-K}
  0.9,                                    !- Thermal Absorptance
  0.3,                                    !- Solar Absorptance
  0.3;                                    !- Visible Absorptance

OS:Material,
  {5dfd001c-8d2c-45bc-849c-c24f2765078a}, !- Handle
  Roof Insulation [19],                   !- Name
  MediumRough,                            !- Roughness
  0.1868,                                 !- Thickness {m}
  0.049,                                  !- Conductivity {W/m-K}
  265,                                    !- Density {kg/m3}
  836.800000000001,                       !- Specific Heat {J/kg-K}
  0.9,                                    !- Thermal Absorptance
  0.7,                                    !- Solar Absorptance
  0.7;                                    !- Visible Absorptance

OS:Construction,
  {d17ffdde-011a-42eb-b917-c315e18d484f}, !- Handle
  ASHRAE 189.1-2009 ExtRoof Metal ClimateZone 2-5, !- Name
  ,                                       !- Surface Rendering Name
  {05cbd063-901d-4d81-9ad0-9ca15da101e5}, !- Layer 1
  {7c1707d7-9965-45dc-91ce-2b3fa532f4e6}; !- Layer 2

OS:StandardsInformation:Construction,
  {2e5e4f0e-fb5f-48e9-b0bf-64cf2f8e857d}, !- Handle
  {d17ffdde-011a-42eb-b917-c315e18d484f}, !- Construction Name
  ExteriorRoof,                           !- Intended Surface Type
  ASHRAE 189.1-2009;                      !- Standards Construction Type

OS:Material,
  {7c1707d7-9965-45dc-91ce-2b3fa532f4e6}, !- Handle
  Roof Insulation [22],                   !- Name
  MediumRough,                            !- Roughness
  0.2358,                                 !- Thickness {m}
  0.049,                                  !- Conductivity {W/m-K}
  265,                                    !- Density {kg/m3}
  836.800000000001,                       !- Specific Heat {J/kg-K}
  0.9,                                    !- Thermal Absorptance
  0.7,                                    !- Solar Absorptance
  0.7;                                    !- Visible Absorptance

OS:Construction,
  {40fdfddd-da5e-40b9-b37b-8ff2b0246323}, !- Handle
  ASHRAE 189.1-2009 ExtRoof Metal ClimateZone 6, !- Name
  ,                                       !- Surface Rendering Name
  {05cbd063-901d-4d81-9ad0-9ca15da101e5}, !- Layer 1
  {231b0331-7dba-47f2-9a80-5519dc58cbce}; !- Layer 2

OS:StandardsInformation:Construction,
  {26e999e4-d037-45dd-89a0-1731b29bb088}, !- Handle
  {40fdfddd-da5e-40b9-b37b-8ff2b0246323}, !- Construction Name
  ExteriorRoof,                           !- Intended Surface Type
  ASHRAE 189.1-2009;                      !- Standards Construction Type

OS:Material,
  {231b0331-7dba-47f2-9a80-5519dc58cbce}, !- Handle
  Roof Insulation [25],                   !- Name
  MediumRough,                            !- Roughness
  0.263,                                  !- Thickness {m}
  0.049,                                  !- Conductivity {W/m-K}
  265,                                    !- Density {kg/m3}
  836.800000000001,                       !- Specific Heat {J/kg-K}
  0.9,                                    !- Thermal Absorptance
  0.7,                                    !- Solar Absorptance
  0.7;                                    !- Visible Absorptance

OS:Construction,
  {73d5c9ee-6430-4fe1-9972-abf13afe209b}, !- Handle
  ASHRAE 189.1-2009 ExtRoof Metal ClimateZone 7-8, !- Name
  ,                                       !- Surface Rendering Name
  {05cbd063-901d-4d81-9ad0-9ca15da101e5}, !- Layer 1
  {da4f9e47-6332-486d-bd4a-d36b4712b29e}; !- Layer 2

OS:StandardsInformation:Construction,
  {327a2fd0-a612-423e-b8dc-8c43ef5fc388}, !- Handle
  {73d5c9ee-6430-4fe1-9972-abf13afe209b}, !- Construction Name
  ExteriorRoof,                           !- Intended Surface Type
  ASHRAE 189.1-2009;                      !- Standards Construction Type

OS:Material,
  {da4f9e47-6332-486d-bd4a-d36b4712b29e}, !- Handle
  Roof Insulation [27],                   !- Name
  MediumRough,                            !- Roughness
  0.297000000000001,                      !- Thickness {m}
  0.049,                                  !- Conductivity {W/m-K}
  265,                                    !- Density {kg/m3}
  836.800000000001,                       !- Specific Heat {J/kg-K}
  0.9,                                    !- Thermal Absorptance
  0.7,                                    !- Solar Absorptance
  0.7;                                    !- Visible Absorptance

OS:Construction,
  {abcabd87-04f2-4848-b27c-0d7dcc504304}, !- Handle
  ASHRAE 189.1-2009 ExtWall Mass ClimateZone 1, !- Name
  ,                                       !- Surface Rendering Name
  {fd5fcbfb-000b-47bc-a723-8b0eb918c299}, !- Layer 1
  {01e59200-dbf9-4975-a58e-c1b61fde01bc}, !- Layer 2
  {0ef7cd61-23c2-4673-a9e9-f11eda2077c6}, !- Layer 3
  {6f6bdc51-c1bf-44f7-9d2a-7cec41d7b35b}; !- Layer 4

OS:StandardsInformation:Construction,
  {efc93328-8976-4f80-882d-cb541fc02d91}, !- Handle
  {abcabd87-04f2-4848-b27c-0d7dcc504304}, !- Construction Name
  ExteriorWall,                           !- Intended Surface Type
  ASHRAE 189.1-2009;                      !- Standards Construction Type

OS:Material,
  {fd5fcbfb-000b-47bc-a723-8b0eb918c299}, !- Handle
  1IN Stucco,                             !- Name
  Smooth,                                 !- Roughness
  0.0253,                                 !- Thickness {m}
  0.691799999999999,                      !- Conductivity {W/m-K}
  1858,                                   !- Density {kg/m3}
  836.999999999999,                       !- Specific Heat {J/kg-K}
  0.9,                                    !- Thermal Absorptance
  0.92,                                   !- Solar Absorptance
  0.92;                                   !- Visible Absorptance

OS:Material,
  {01e59200-dbf9-4975-a58e-c1b61fde01bc}, !- Handle
  8IN Concrete HW,                        !- Name
  MediumRough,                            !- Roughness
  0.2033,                                 !- Thickness {m}
  1.72959999999999,                       !- Conductivity {W/m-K}
  2242.99999999999,                       !- Density {kg/m3}
  836.999999999999,                       !- Specific Heat {J/kg-K}
  0.9,                                    !- Thermal Absorptance
  0.65,                                   !- Solar Absorptance
  0.65;                                   !- Visible Absorptance

OS:Material,
  {0ef7cd61-23c2-4673-a9e9-f11eda2077c6}, !- Handle
  Wall Insulation [31],                   !- Name
  MediumRough,                            !- Roughness
  0.0337000000000001,                     !- Thickness {m}
  0.0432,                                 !- Conductivity {W/m-K}
  91,                                     !- Density {kg/m3}
  836.999999999999,                       !- Specific Heat {J/kg-K}
  0.9,                                    !- Thermal Absorptance
  0.5,                                    !- Solar Absorptance
  0.5;                                    !- Visible Absorptance

OS:Construction,
  {e96c2500-e83d-4e7e-ab16-82b5fb1657c8}, !- Handle
  ASHRAE 189.1-2009 ExtWall Mass ClimateZone 2, !- Name
  ,                                       !- Surface Rendering Name
  {fd5fcbfb-000b-47bc-a723-8b0eb918c299}, !- Layer 1
  {01e59200-dbf9-4975-a58e-c1b61fde01bc}, !- Layer 2
  {d68d36f8-ef73-4fcb-b29a-9e23fa53bc94}, !- Layer 3
  {6f6bdc51-c1bf-44f7-9d2a-7cec41d7b35b}; !- Layer 4

OS:StandardsInformation:Construction,
  {5631d3dc-6fce-40c4-9170-3c54dba567b9}, !- Handle
  {e96c2500-e83d-4e7e-ab16-82b5fb1657c8}, !- Construction Name
  ExteriorWall,                           !- Intended Surface Type
  ASHRAE 189.1-2009;                      !- Standards Construction Type

OS:Material,
  {d68d36f8-ef73-4fcb-b29a-9e23fa53bc94}, !- Handle
  Wall Insulation [35],                   !- Name
  MediumRough,                            !- Roughness
  0.0452,                                 !- Thickness {m}
  0.0432,                                 !- Conductivity {W/m-K}
  91,                                     !- Density {kg/m3}
  836.999999999999,                       !- Specific Heat {J/kg-K}
  0.9,                                    !- Thermal Absorptance
  0.5,                                    !- Solar Absorptance
  0.5;                                    !- Visible Absorptance

OS:Construction,
  {89b56bf3-344c-45a8-a0a3-22dab6e210ee}, !- Handle
  ASHRAE 189.1-2009 ExtWall Mass ClimateZone 3, !- Name
  ,                                       !- Surface Rendering Name
  {fd5fcbfb-000b-47bc-a723-8b0eb918c299}, !- Layer 1
  {01e59200-dbf9-4975-a58e-c1b61fde01bc}, !- Layer 2
  {c5726320-9465-4a41-8d7b-b1eb1be35513}, !- Layer 3
  {6f6bdc51-c1bf-44f7-9d2a-7cec41d7b35b}; !- Layer 4

OS:StandardsInformation:Construction,
  {83481053-5089-4a50-aa45-3a187050d82d}, !- Handle
  {89b56bf3-344c-45a8-a0a3-22dab6e210ee}, !- Construction Name
  ExteriorWall,                           !- Intended Surface Type
  ASHRAE 189.1-2009;                      !- Standards Construction Type

OS:Material,
  {c5726320-9465-4a41-8d7b-b1eb1be35513}, !- Handle
  Wall Insulation [36],                   !- Name
  MediumRough,                            !- Roughness
  0.0565999999999999,                     !- Thickness {m}
  0.0432,                                 !- Conductivity {W/m-K}
  91,                                     !- Density {kg/m3}
  836.999999999999,                       !- Specific Heat {J/kg-K}
  0.9,                                    !- Thermal Absorptance
  0.5,                                    !- Solar Absorptance
  0.5;                                    !- Visible Absorptance

OS:Construction,
  {7a5ba6c3-bd94-4a9e-97b2-e3a62855a090}, !- Handle
  ASHRAE 189.1-2009 ExtWall Mass ClimateZone 4, !- Name
  ,                                       !- Surface Rendering Name
  {fd5fcbfb-000b-47bc-a723-8b0eb918c299}, !- Layer 1
  {01e59200-dbf9-4975-a58e-c1b61fde01bc}, !- Layer 2
  {134da8c3-66bb-40f1-af25-86bdb860ffde}, !- Layer 3
  {6f6bdc51-c1bf-44f7-9d2a-7cec41d7b35b}; !- Layer 4

OS:StandardsInformation:Construction,
  {a384fc34-94ce-49b5-9f71-8b9ff6f6ca5a}, !- Handle
  {7a5ba6c3-bd94-4a9e-97b2-e3a62855a090}, !- Construction Name
  ExteriorWall,                           !- Intended Surface Type
  ASHRAE 189.1-2009;                      !- Standards Construction Type

OS:Material,
  {134da8c3-66bb-40f1-af25-86bdb860ffde}, !- Handle
  Wall Insulation [37],                   !- Name
  MediumRough,                            !- Roughness
  0.0680999999999999,                     !- Thickness {m}
  0.0432,                                 !- Conductivity {W/m-K}
  91,                                     !- Density {kg/m3}
  836.999999999999,                       !- Specific Heat {J/kg-K}
  0.9,                                    !- Thermal Absorptance
  0.5,                                    !- Solar Absorptance
  0.5;                                    !- Visible Absorptance

OS:Construction,
  {3121f2b9-dd20-4e88-9692-02addae32071}, !- Handle
  ASHRAE 189.1-2009 ExtWall Mass ClimateZone 5, !- Name
  ,                                       !- Surface Rendering Name
  {fd5fcbfb-000b-47bc-a723-8b0eb918c299}, !- Layer 1
  {01e59200-dbf9-4975-a58e-c1b61fde01bc}, !- Layer 2
  {00c1d172-9955-4704-b380-4ec4356896a2}, !- Layer 3
  {6f6bdc51-c1bf-44f7-9d2a-7cec41d7b35b}; !- Layer 4

OS:StandardsInformation:Construction,
  {90e1dd04-4292-49e4-8916-bec66a5516a1}, !- Handle
  {3121f2b9-dd20-4e88-9692-02addae32071}, !- Construction Name
  ExteriorWall,                           !- Intended Surface Type
  ASHRAE 189.1-2009;                      !- Standards Construction Type

OS:Material,
  {00c1d172-9955-4704-b380-4ec4356896a2}, !- Handle
  Wall Insulation [40],                   !- Name
  MediumRough,                            !- Roughness
  0.0793999999999999,                     !- Thickness {m}
  0.0432,                                 !- Conductivity {W/m-K}
  91,                                     !- Density {kg/m3}
  836.999999999999,                       !- Specific Heat {J/kg-K}
  0.9,                                    !- Thermal Absorptance
  0.5,                                    !- Solar Absorptance
  0.5;                                    !- Visible Absorptance

OS:Construction,
  {4e2ce86e-5ccc-4c45-afce-fbdbc189c9c7}, !- Handle
  ASHRAE 189.1-2009 ExtWall Mass ClimateZone 6, !- Name
  ,                                       !- Surface Rendering Name
  {fd5fcbfb-000b-47bc-a723-8b0eb918c299}, !- Layer 1
  {01e59200-dbf9-4975-a58e-c1b61fde01bc}, !- Layer 2
  {40249d28-371a-4df5-817e-5c35d43c8aea}, !- Layer 3
  {6f6bdc51-c1bf-44f7-9d2a-7cec41d7b35b}; !- Layer 4

OS:StandardsInformation:Construction,
  {9fdcb94b-b01e-43d4-938e-22c233532c21}, !- Handle
  {4e2ce86e-5ccc-4c45-afce-fbdbc189c9c7}, !- Construction Name
  ExteriorWall,                           !- Intended Surface Type
  ASHRAE 189.1-2009;                      !- Standards Construction Type

OS:Material,
  {40249d28-371a-4df5-817e-5c35d43c8aea}, !- Handle
  Wall Insulation [42],                   !- Name
  MediumRough,                            !- Roughness
  0.0913999999999999,                     !- Thickness {m}
  0.0432,                                 !- Conductivity {W/m-K}
  91,                                     !- Density {kg/m3}
  836.999999999999,                       !- Specific Heat {J/kg-K}
  0.9,                                    !- Thermal Absorptance
  0.5,                                    !- Solar Absorptance
  0.5;                                    !- Visible Absorptance

OS:Construction,
  {bce713d3-2295-45e6-9ddc-0f32535a0a67}, !- Handle
  ASHRAE 189.1-2009 ExtWall Mass ClimateZone 7-8, !- Name
  ,                                       !- Surface Rendering Name
  {fd5fcbfb-000b-47bc-a723-8b0eb918c299}, !- Layer 1
  {01e59200-dbf9-4975-a58e-c1b61fde01bc}, !- Layer 2
  {bdd6ffda-7ec1-44eb-8946-a39b99b2be5a}, !- Layer 3
  {6f6bdc51-c1bf-44f7-9d2a-7cec41d7b35b}; !- Layer 4

OS:StandardsInformation:Construction,
  {ae37b2b5-a5c4-43b8-9741-5ed7d892b2c9}, !- Handle
  {bce713d3-2295-45e6-9ddc-0f32535a0a67}, !- Construction Name
  ExteriorWall,                           !- Intended Surface Type
  ASHRAE 189.1-2009;                      !- Standards Construction Type

OS:Material,
  {bdd6ffda-7ec1-44eb-8946-a39b99b2be5a}, !- Handle
  Wall Insulation [44],                   !- Name
  MediumRough,                            !- Roughness
  0.1104,                                 !- Thickness {m}
  0.0432,                                 !- Conductivity {W/m-K}
  91,                                     !- Density {kg/m3}
  836.999999999999,                       !- Specific Heat {J/kg-K}
  0.9,                                    !- Thermal Absorptance
  0.5,                                    !- Solar Absorptance
  0.5;                                    !- Visible Absorptance

OS:Construction,
  {807f66c7-e5da-47be-87bc-364dc1856863}, !- Handle
  ASHRAE 189.1-2009 ExtWall Mass ClimateZone alt-res 1, !- Name
  ,                                       !- Surface Rendering Name
  {fd5fcbfb-000b-47bc-a723-8b0eb918c299}, !- Layer 1
  {01e59200-dbf9-4975-a58e-c1b61fde01bc}, !- Layer 2
  {d68d36f8-ef73-4fcb-b29a-9e23fa53bc94}, !- Layer 3
  {6f6bdc51-c1bf-44f7-9d2a-7cec41d7b35b}; !- Layer 4

OS:StandardsInformation:Construction,
  {66393d57-e9dd-4e41-b354-da3d3defc5a4}, !- Handle
  {807f66c7-e5da-47be-87bc-364dc1856863}, !- Construction Name
  ExteriorWall,                           !- Intended Surface Type
  ASHRAE 189.1-2009;                      !- Standards Construction Type

OS:Construction,
  {6ffea11b-8049-47de-ad4f-0ff3fe76684c}, !- Handle
  ASHRAE 189.1-2009 ExtWall Mass ClimateZone alt-res 2, !- Name
  ,                                       !- Surface Rendering Name
  {fd5fcbfb-000b-47bc-a723-8b0eb918c299}, !- Layer 1
  {01e59200-dbf9-4975-a58e-c1b61fde01bc}, !- Layer 2
  {c5726320-9465-4a41-8d7b-b1eb1be35513}, !- Layer 3
  {6f6bdc51-c1bf-44f7-9d2a-7cec41d7b35b}; !- Layer 4

OS:StandardsInformation:Construction,
  {f8a15929-0a13-4d8a-a9b7-868d41d6bc73}, !- Handle
  {6ffea11b-8049-47de-ad4f-0ff3fe76684c}, !- Construction Name
  ExteriorWall,                           !- Intended Surface Type
  ASHRAE 189.1-2009;                      !- Standards Construction Type

OS:Construction,
  {98e541a4-21cb-47d3-9da2-499326c861e8}, !- Handle
  ASHRAE 189.1-2009 ExtWall Mass ClimateZone alt-res 3, !- Name
  ,                                       !- Surface Rendering Name
  {fd5fcbfb-000b-47bc-a723-8b0eb918c299}, !- Layer 1
  {01e59200-dbf9-4975-a58e-c1b61fde01bc}, !- Layer 2
  {134da8c3-66bb-40f1-af25-86bdb860ffde}, !- Layer 3
  {6f6bdc51-c1bf-44f7-9d2a-7cec41d7b35b}; !- Layer 4

OS:StandardsInformation:Construction,
  {70d055a5-38ff-4124-87ba-936d04e27c87}, !- Handle
  {98e541a4-21cb-47d3-9da2-499326c861e8}, !- Construction Name
  ExteriorWall,                           !- Intended Surface Type
  ASHRAE 189.1-2009;                      !- Standards Construction Type

OS:Construction,
  {8b6e2c72-4738-41b1-8406-1879df585bed}, !- Handle
  ASHRAE 189.1-2009 ExtWall Mass ClimateZone alt-res 4, !- Name
  ,                                       !- Surface Rendering Name
  {fd5fcbfb-000b-47bc-a723-8b0eb918c299}, !- Layer 1
  {01e59200-dbf9-4975-a58e-c1b61fde01bc}, !- Layer 2
  {00c1d172-9955-4704-b380-4ec4356896a2}, !- Layer 3
  {6f6bdc51-c1bf-44f7-9d2a-7cec41d7b35b}; !- Layer 4

OS:StandardsInformation:Construction,
  {aa6cb2a4-89e3-4330-b76f-379c48152d1c}, !- Handle
  {8b6e2c72-4738-41b1-8406-1879df585bed}, !- Construction Name
  ExteriorWall,                           !- Intended Surface Type
  ASHRAE 189.1-2009;                      !- Standards Construction Type

OS:Construction,
  {f0466ae2-91a5-42e2-9d69-137039932669}, !- Handle
  ASHRAE 189.1-2009 ExtWall Mass ClimateZone alt-res 5, !- Name
  ,                                       !- Surface Rendering Name
  {fd5fcbfb-000b-47bc-a723-8b0eb918c299}, !- Layer 1
  {01e59200-dbf9-4975-a58e-c1b61fde01bc}, !- Layer 2
  {40249d28-371a-4df5-817e-5c35d43c8aea}, !- Layer 3
  {6f6bdc51-c1bf-44f7-9d2a-7cec41d7b35b}; !- Layer 4

OS:StandardsInformation:Construction,
  {8380669f-4f39-4db6-a186-0c02107284b5}, !- Handle
  {f0466ae2-91a5-42e2-9d69-137039932669}, !- Construction Name
  ExteriorWall,                           !- Intended Surface Type
  ASHRAE 189.1-2009;                      !- Standards Construction Type

OS:Construction,
  {96e5985e-3d50-48f8-8aab-91202534192e}, !- Handle
  ASHRAE 189.1-2009 ExtWall Mass ClimateZone alt-res 6, !- Name
  ,                                       !- Surface Rendering Name
  {fd5fcbfb-000b-47bc-a723-8b0eb918c299}, !- Layer 1
  {01e59200-dbf9-4975-a58e-c1b61fde01bc}, !- Layer 2
  {bdd6ffda-7ec1-44eb-8946-a39b99b2be5a}, !- Layer 3
  {6f6bdc51-c1bf-44f7-9d2a-7cec41d7b35b}; !- Layer 4

OS:StandardsInformation:Construction,
  {4320737e-16af-435e-bb93-fcf0a533ac6d}, !- Handle
  {96e5985e-3d50-48f8-8aab-91202534192e}, !- Construction Name
  ExteriorWall,                           !- Intended Surface Type
  ASHRAE 189.1-2009;                      !- Standards Construction Type

OS:Construction,
  {5fb5efe0-f682-4a50-8598-8e944fb7051f}, !- Handle
  ASHRAE 189.1-2009 ExtWall Mass ClimateZone alt-res 7, !- Name
  ,                                       !- Surface Rendering Name
  {fd5fcbfb-000b-47bc-a723-8b0eb918c299}, !- Layer 1
  {01e59200-dbf9-4975-a58e-c1b61fde01bc}, !- Layer 2
  {bdd6ffda-7ec1-44eb-8946-a39b99b2be5a}, !- Layer 3
  {6f6bdc51-c1bf-44f7-9d2a-7cec41d7b35b}; !- Layer 4

OS:StandardsInformation:Construction,
  {f8f99b4f-7aaf-418a-bfcd-f0da8643b44f}, !- Handle
  {5fb5efe0-f682-4a50-8598-8e944fb7051f}, !- Construction Name
  ExteriorWall,                           !- Intended Surface Type
  ASHRAE 189.1-2009;                      !- Standards Construction Type

OS:Construction,
  {19d83c75-83e2-42a2-a278-97967a73b764}, !- Handle
  ASHRAE 189.1-2009 ExtWall Mass ClimateZone alt-res 8, !- Name