
OS:Version,
  {7c89cd08-e6ec-41b8-bed6-b7fc28669a02}, !- Handle
  1.2.3;                                  !- Version Identifier

OS:Construction,
  {c67ec999-ae10-4fd2-b992-24cd957495db}, !- Handle
  ASHRAE 189.1-2009 AtticFloor ClimateZone 1-8, !- Name
  ,                                       !- Surface Rendering Name
  {28c65852-ba1d-4828-a4b6-fa4f31fb6d40}, !- Layer 1
  {5576c8ad-c002-4896-90f0-3b1dadc8407d}, !- Layer 2
  {28c65852-ba1d-4828-a4b6-fa4f31fb6d40}; !- Layer 3

OS:StandardsInformation:Construction,
  {c2630ac7-bb5d-4bcf-a0ca-a7c7243e8c4e}, !- Handle
  {c67ec999-ae10-4fd2-b992-24cd957495db}, !- Construction Name
  AtticFloor,                             !- Intended Surface Type
  WoodFramed;                             !- Standards Construction Type

OS:Material,
  {28c65852-ba1d-4828-a4b6-fa4f31fb6d40}, !- Handle
  1/2IN Gypsum,                           !- Name
  Smooth,                                 !- Roughness
  0.0127,                                 !- Thickness {m}
  0.16,                                   !- Conductivity {W/m-K}
  784.9,                                  !- Density {kg/m3}
  830.000000000001,                       !- Specific Heat {J/kg-K}
  0.9,                                    !- Thermal Absorptance
  0.92,                                   !- Solar Absorptance
  0.92;                                   !- Visible Absorptance

OS:Material,
  {5576c8ad-c002-4896-90f0-3b1dadc8407d}, !- Handle
  AtticFloor Insulation,                  !- Name
  MediumRough,                            !- Roughness
  0.2379,                                 !- Thickness {m}
  0.049,                                  !- Conductivity {W/m-K}
  265,                                    !- Density {kg/m3}
  836.800000000001,                       !- Specific Heat {J/kg-K}
  0.9,                                    !- Thermal Absorptance
  0.7,                                    !- Solar Absorptance
  0.7;                                    !- Visible Absorptance

OS:Construction,
  {65e6dd75-24b4-486d-acfd-52a7a6ec2e54}, !- Handle
  ASHRAE 189.1-2009 ExtRoof IEAD ClimateZone 1, !- Name
  ,                                       !- Surface Rendering Name
  {1e5f20ff-249e-4161-aae5-4fb5a930031a}, !- Layer 1
  {e682d0c7-b2eb-43fc-a2aa-f2083df03f0a}, !- Layer 2
  {3e9b3ff5-ddbc-4215-ba42-bf3295fc73b2}; !- Layer 3

OS:StandardsInformation:Construction,
  {960c9cd6-fea5-42dd-8169-c97f23d11be2}, !- Handle
  {65e6dd75-24b4-486d-acfd-52a7a6ec2e54}, !- Construction Name
  ExteriorRoof,                           !- Intended Surface Type
  IEAD;                                   !- Standards Construction Type

OS:Material,
  {1e5f20ff-249e-4161-aae5-4fb5a930031a}, !- Handle
  Roof Membrane,                          !- Name
  VeryRough,                              !- Roughness
  0.0095,                                 !- Thickness {m}
  0.16,                                   !- Conductivity {W/m-K}
  1121.29,                                !- Density {kg/m3}
  1460,                                   !- Specific Heat {J/kg-K}
  0.9,                                    !- Thermal Absorptance
  0.7,                                    !- Solar Absorptance
  0.7;                                    !- Visible Absorptance

OS:Material,
  {e682d0c7-b2eb-43fc-a2aa-f2083df03f0a}, !- Handle
  Roof Insulation [18],                   !- Name
  MediumRough,                            !- Roughness
  0.1693,                                 !- Thickness {m}
  0.049,                                  !- Conductivity {W/m-K}
  265,                                    !- Density {kg/m3}
  836.800000000001,                       !- Specific Heat {J/kg-K}
  0.9,                                    !- Thermal Absorptance
  0.7,                                    !- Solar Absorptance
  0.7;                                    !- Visible Absorptance

OS:Material,
  {3e9b3ff5-ddbc-4215-ba42-bf3295fc73b2}, !- Handle
  Metal Decking,                          !- Name
  MediumSmooth,                           !- Roughness
  0.0015,                                 !- Thickness {m}
  45.006,                                 !- Conductivity {W/m-K}
  7680,                                   !- Density {kg/m3}
  418.4,                                  !- Specific Heat {J/kg-K}
  0.9,                                    !- Thermal Absorptance
  0.7,                                    !- Solar Absorptance
  0.3;                                    !- Visible Absorptance

OS:Construction,
  {2e558da3-4cdc-4f2d-8aad-c0920d36226c}, !- Handle
  ASHRAE 189.1-2009 ExtRoof IEAD ClimateZone 2-5, !- Name
  ,                                       !- Surface Rendering Name
  {1e5f20ff-249e-4161-aae5-4fb5a930031a}, !- Layer 1
  {6e7731d7-ba29-468c-9fe6-8e0d84c55646}, !- Layer 2
  {3e9b3ff5-ddbc-4215-ba42-bf3295fc73b2}; !- Layer 3

OS:StandardsInformation:Construction,
  {f7903db4-784d-4ef8-ab25-8bd2723b784d}, !- Handle
  {2e558da3-4cdc-4f2d-8aad-c0920d36226c}, !- Construction Name
  ExteriorRoof,                           !- Intended Surface Type
  IEAD;                                   !- Standards Construction Type

OS:Material,
  {6e7731d7-ba29-468c-9fe6-8e0d84c55646}, !- Handle
  Roof Insulation [21],                   !- Name
  MediumRough,                            !- Roughness
  0.2105,                                 !- Thickness {m}
  0.049,                                  !- Conductivity {W/m-K}
  265,                                    !- Density {kg/m3}
  836.800000000001,                       !- Specific Heat {J/kg-K}
  0.9,                                    !- Thermal Absorptance
  0.7,                                    !- Solar Absorptance
  0.7;                                    !- Visible Absorptance

OS:Construction,
  {ec039415-570a-44f7-bc24-f9531cdd4c8c}, !- Handle
  ASHRAE 189.1-2009 ExtRoof IEAD ClimateZone 6, !- Name
  ,                                       !- Surface Rendering Name
  {1e5f20ff-249e-4161-aae5-4fb5a930031a}, !- Layer 1
  {098a8339-8895-4479-93f8-44b2f7458ba3}, !- Layer 2
  {3e9b3ff5-ddbc-4215-ba42-bf3295fc73b2}; !- Layer 3

OS:StandardsInformation:Construction,
  {81d33054-ba2f-43ea-b701-0deb9a47d282}, !- Handle
  {ec039415-570a-44f7-bc24-f9531cdd4c8c}, !- Construction Name
  ExteriorRoof,                           !- Intended Surface Type
  IEAD;                                   !- Standards Construction Type

OS:Material,
  {098a8339-8895-4479-93f8-44b2f7458ba3}, !- Handle
  Roof Insulation [24],                   !- Name
  MediumRough,                            !- Roughness
  0.260100000000001,                      !- Thickness {m}
  0.049,                                  !- Conductivity {W/m-K}
  265,                                    !- Density {kg/m3}
  836.800000000001,                       !- Specific Heat {J/kg-K}
  0.9,                                    !- Thermal Absorptance
  0.7,                                    !- Solar Absorptance
  0.7;                                    !- Visible Absorptance

OS:Construction,
  {bf72bb0f-b245-4712-8414-e233ff734563}, !- Handle
  ASHRAE 189.1-2009 ExtRoof IEAD ClimateZone 7-8, !- Name
  ,                                       !- Surface Rendering Name
  {1e5f20ff-249e-4161-aae5-4fb5a930031a}, !- Layer 1
  {d67640ac-7a7c-4c73-9c7e-2510e343967d}, !- Layer 2
  {3e9b3ff5-ddbc-4215-ba42-bf3295fc73b2}; !- Layer 3

OS:StandardsInformation:Construction,
  {8905048b-6897-4418-9f7b-4032ed791769}, !- Handle
  {bf72bb0f-b245-4712-8414-e233ff734563}, !- Construction Name
  ExteriorRoof,                           !- Intended Surface Type
  IEAD;                                   !- Standards Construction Type

OS:Material,
  {d67640ac-7a7c-4c73-9c7e-2510e343967d}, !- Handle
  Roof Insulation [26],                   !- Name
  MediumRough,                            !- Roughness
  0.2941,                                 !- Thickness {m}
  0.049,                                  !- Conductivity {W/m-K}
  265,                                    !- Density {kg/m3}
  836.800000000001,                       !- Specific Heat {J/kg-K}
  0.9,                                    !- Thermal Absorptance
  0.7,                                    !- Solar Absorptance
  0.7;                                    !- Visible Absorptance

OS:Construction,
  {df9ea109-52fa-4863-9d79-8462c91d1886}, !- Handle
  ASHRAE 189.1-2009 ExtRoof Metal ClimateZone 1, !- Name
  ,                                       !- Surface Rendering Name
  {3a1d84f9-fdc8-40ef-88a6-4806edc04892}, !- Layer 1
  {ec273b54-9993-4304-a1c7-dab0ac327470}; !- Layer 2

OS:StandardsInformation:Construction,
  {d079e236-20f9-4ae1-82c6-978e8984f258}, !- Handle
  {df9ea109-52fa-4863-9d79-8462c91d1886}, !- Construction Name
  ExteriorRoof,                           !- Intended Surface Type
  Metal;                                  !- Standards Construction Type

OS:Material,
  {3a1d84f9-fdc8-40ef-88a6-4806edc04892}, !- Handle
  Metal Roofing,                          !- Name
  MediumSmooth,                           !- Roughness
  0.0015,                                 !- Thickness {m}
  45.006,                                 !- Conductivity {W/m-K}
  7680,                                   !- Density {kg/m3}
  418.4,                                  !- Specific Heat {J/kg-K}
  0.9,                                    !- Thermal Absorptance
  0.3,                                    !- Solar Absorptance
  0.3;                                    !- Visible Absorptance

OS:Material,
  {ec273b54-9993-4304-a1c7-dab0ac327470}, !- Handle
  Roof Insulation [19],                   !- Name
  MediumRough,                            !- Roughness
  0.1868,                                 !- Thickness {m}
  0.049,                                  !- Conductivity {W/m-K}
  265,                                    !- Density {kg/m3}
  836.800000000001,                       !- Specific Heat {J/kg-K}
  0.9,                                    !- Thermal Absorptance
  0.7,                                    !- Solar Absorptance
  0.7;                                    !- Visible Absorptance

OS:Construction,
  {5060616c-7b2d-4d8e-8862-db5100144d90}, !- Handle
  ASHRAE 189.1-2009 ExtRoof Metal ClimateZone 2-5, !- Name
  ,                                       !- Surface Rendering Name
  {3a1d84f9-fdc8-40ef-88a6-4806edc04892}, !- Layer 1
  {0ff5bee4-5cb6-4500-8f48-a8052f54085a}; !- Layer 2

OS:StandardsInformation:Construction,
  {b3f13c26-7b73-45e6-9748-e8dcc215b832}, !- Handle
  {5060616c-7b2d-4d8e-8862-db5100144d90}, !- Construction Name
  ExteriorRoof,                           !- Intended Surface Type
  Metal;                                  !- Standards Construction Type

OS:Material,
  {0ff5bee4-5cb6-4500-8f48-a8052f54085a}, !- Handle
  Roof Insulation [22],                   !- Name
  MediumRough,                            !- Roughness
  0.2358,                                 !- Thickness {m}
  0.049,                                  !- Conductivity {W/m-K}
  265,                                    !- Density {kg/m3}
  836.800000000001,                       !- Specific Heat {J/kg-K}
  0.9,                                    !- Thermal Absorptance
  0.7,                                    !- Solar Absorptance
  0.7;                                    !- Visible Absorptance

OS:Construction,
  {195ca38c-bb94-452b-be5f-6bb77f907a06}, !- Handle
  ASHRAE 189.1-2009 ExtRoof Metal ClimateZone 6, !- Name
  ,                                       !- Surface Rendering Name
  {3a1d84f9-fdc8-40ef-88a6-4806edc04892}, !- Layer 1
  {b17f811f-ae86-4b42-9ba0-ee90ba00dbf2}; !- Layer 2

OS:StandardsInformation:Construction,
  {c8654db5-941a-408b-8eee-31a3f8612392}, !- Handle
  {195ca38c-bb94-452b-be5f-6bb77f907a06}, !- Construction Name
  ExteriorRoof,                           !- Intended Surface Type
  Metal;                                  !- Standards Construction Type

OS:Material,
  {b17f811f-ae86-4b42-9ba0-ee90ba00dbf2}, !- Handle
  Roof Insulation [25],                   !- Name
  MediumRough,                            !- Roughness
  0.263,                                  !- Thickness {m}
  0.049,                                  !- Conductivity {W/m-K}
  265,                                    !- Density {kg/m3}
  836.800000000001,                       !- Specific Heat {J/kg-K}
  0.9,                                    !- Thermal Absorptance
  0.7,                                    !- Solar Absorptance
  0.7;                                    !- Visible Absorptance

OS:Construction,
  {e9e4ee0a-92bc-4a7e-aacf-670abe63f27c}, !- Handle
  ASHRAE 189.1-2009 ExtRoof Metal ClimateZone 7-8, !- Name
  ,                                       !- Surface Rendering Name
  {3a1d84f9-fdc8-40ef-88a6-4806edc04892}, !- Layer 1
  {113d59e8-6f70-400d-a908-7b1355e8c69c}; !- Layer 2

OS:StandardsInformation:Construction,
  {def5e9c7-0bb8-4c64-a2e7-7f8d812d3fd3}, !- Handle
  {e9e4ee0a-92bc-4a7e-aacf-670abe63f27c}, !- Construction Name
  ExteriorRoof,                           !- Intended Surface Type
  Metal;                                  !- Standards Construction Type

OS:Material,
  {113d59e8-6f70-400d-a908-7b1355e8c69c}, !- Handle
  Roof Insulation [27],                   !- Name
  MediumRough,                            !- Roughness
  0.297000000000001,                      !- Thickness {m}
  0.049,                                  !- Conductivity {W/m-K}
  265,                                    !- Density {kg/m3}
  836.800000000001,                       !- Specific Heat {J/kg-K}
  0.9,                                    !- Thermal Absorptance
  0.7,                                    !- Solar Absorptance
  0.7;                                    !- Visible Absorptance

OS:Construction,
  {6b6324dd-65d9-4f0f-96c3-774149ac7ef4}, !- Handle
  ASHRAE 189.1-2009 ExtWall Mass ClimateZone 1, !- Name
  ,                                       !- Surface Rendering Name
  {d342c1ef-ca0a-440f-8b94-f52359e0cf60}, !- Layer 1
  {a4a10b13-5648-4cef-a8a2-5eff52ecead9}, !- Layer 2
  {5c88fa56-23b1-4dfa-af3f-d83f9986588e}, !- Layer 3
  {28c65852-ba1d-4828-a4b6-fa4f31fb6d40}; !- Layer 4

OS:StandardsInformation:Construction,
  {7640ca17-a1fd-43a1-9385-c5e13112e991}, !- Handle
  {6b6324dd-65d9-4f0f-96c3-774149ac7ef4}, !- Construction Name
  ExteriorWall,                           !- Intended Surface Type
  Mass;                                   !- Standards Construction Type

OS:Material,
  {d342c1ef-ca0a-440f-8b94-f52359e0cf60}, !- Handle
  1IN Stucco,                             !- Name
  Smooth,                                 !- Roughness
  0.0253,                                 !- Thickness {m}
  0.691799999999999,                      !- Conductivity {W/m-K}
  1858,                                   !- Density {kg/m3}
  836.999999999999,                       !- Specific Heat {J/kg-K}
  0.9,                                    !- Thermal Absorptance
  0.92,                                   !- Solar Absorptance
  0.92;                                   !- Visible Absorptance

OS:Material,
  {a4a10b13-5648-4cef-a8a2-5eff52ecead9}, !- Handle
  8IN Concrete HW,                        !- Name
  MediumRough,                            !- Roughness
  0.2033,                                 !- Thickness {m}
  1.72959999999999,                       !- Conductivity {W/m-K}
  2242.99999999999,                       !- Density {kg/m3}
  836.999999999999,                       !- Specific Heat {J/kg-K}
  0.9,                                    !- Thermal Absorptance
  0.65,                                   !- Solar Absorptance
  0.65;                                   !- Visible Absorptance

OS:Material,
  {5c88fa56-23b1-4dfa-af3f-d83f9986588e}, !- Handle
  Wall Insulation [31],                   !- Name
  MediumRough,                            !- Roughness
  0.0337000000000001,                     !- Thickness {m}
  0.0432,                                 !- Conductivity {W/m-K}
  91,                                     !- Density {kg/m3}
  836.999999999999,                       !- Specific Heat {J/kg-K}
  0.9,                                    !- Thermal Absorptance
  0.5,                                    !- Solar Absorptance
  0.5;                                    !- Visible Absorptance

OS:Construction,
  {8358d087-2ef1-452e-b564-e63476ba9d27}, !- Handle
  ASHRAE 189.1-2009 ExtWall Mass ClimateZone 2, !- Name
  ,                                       !- Surface Rendering Name
  {d342c1ef-ca0a-440f-8b94-f52359e0cf60}, !- Layer 1
  {a4a10b13-5648-4cef-a8a2-5eff52ecead9}, !- Layer 2
  {6cb7f0d6-c172-4ed1-bd52-4d481ba987f2}, !- Layer 3
  {28c65852-ba1d-4828-a4b6-fa4f31fb6d40}; !- Layer 4

OS:StandardsInformation:Construction,
  {c4175766-9848-4c96-863f-a86e8396bc8f}, !- Handle
  {8358d087-2ef1-452e-b564-e63476ba9d27}, !- Construction Name
  ExteriorWall,                           !- Intended Surface Type
  Mass;                                   !- Standards Construction Type

OS:Material,
  {6cb7f0d6-c172-4ed1-bd52-4d481ba987f2}, !- Handle
  Wall Insulation [35],                   !- Name
  MediumRough,                            !- Roughness
  0.0452,                                 !- Thickness {m}
  0.0432,                                 !- Conductivity {W/m-K}
  91,                                     !- Density {kg/m3}
  836.999999999999,                       !- Specific Heat {J/kg-K}
  0.9,                                    !- Thermal Absorptance
  0.5,                                    !- Solar Absorptance
  0.5;                                    !- Visible Absorptance

OS:Construction,
  {7965e49b-0fb8-442a-865a-04ce1c0c1281}, !- Handle
  ASHRAE 189.1-2009 ExtWall Mass ClimateZone 3, !- Name
  ,                                       !- Surface Rendering Name
  {d342c1ef-ca0a-440f-8b94-f52359e0cf60}, !- Layer 1
  {a4a10b13-5648-4cef-a8a2-5eff52ecead9}, !- Layer 2
  {58b30d1f-b8ff-4a69-8a32-8a66a0eda297}, !- Layer 3
  {28c65852-ba1d-4828-a4b6-fa4f31fb6d40}; !- Layer 4

OS:StandardsInformation:Construction,
  {4bd7530a-f664-4634-928c-65667263d913}, !- Handle
  {7965e49b-0fb8-442a-865a-04ce1c0c1281}, !- Construction Name
  ExteriorWall,                           !- Intended Surface Type
  Mass;                                   !- Standards Construction Type

OS:Material,
  {58b30d1f-b8ff-4a69-8a32-8a66a0eda297}, !- Handle
  Wall Insulation [36],                   !- Name
  MediumRough,                            !- Roughness
  0.0565999999999999,                     !- Thickness {m}
  0.0432,                                 !- Conductivity {W/m-K}
  91,                                     !- Density {kg/m3}
  836.999999999999,                       !- Specific Heat {J/kg-K}
  0.9,                                    !- Thermal Absorptance
  0.5,                                    !- Solar Absorptance
  0.5;                                    !- Visible Absorptance

OS:Construction,
  {4e451011-5487-4c00-88ef-019f12a4dc18}, !- Handle
  ASHRAE 189.1-2009 ExtWall Mass ClimateZone 4, !- Name
  ,                                       !- Surface Rendering Name
  {d342c1ef-ca0a-440f-8b94-f52359e0cf60}, !- Layer 1
  {a4a10b13-5648-4cef-a8a2-5eff52ecead9}, !- Layer 2
  {3d5396b4-955d-400a-bf3e-bdb1c451d1b5}, !- Layer 3
  {28c65852-ba1d-4828-a4b6-fa4f31fb6d40}; !- Layer 4

OS:StandardsInformation:Construction,
  {c984e9ee-7164-48a8-b37d-275daedd76a5}, !- Handle
  {4e451011-5487-4c00-88ef-019f12a4dc18}, !- Construction Name
  ExteriorWall,                           !- Intended Surface Type
  Mass;                                   !- Standards Construction Type

OS:Material,
  {3d5396b4-955d-400a-bf3e-bdb1c451d1b5}, !- Handle
  Wall Insulation [37],                   !- Name
  MediumRough,                            !- Roughness
  0.0680999999999999,                     !- Thickness {m}
  0.0432,                                 !- Conductivity {W/m-K}
  91,                                     !- Density {kg/m3}
  836.999999999999,                       !- Specific Heat {J/kg-K}
  0.9,                                    !- Thermal Absorptance
  0.5,                                    !- Solar Absorptance
  0.5;                                    !- Visible Absorptance

OS:Construction,
  {b5443de2-9530-4534-ad1e-b957dcc34fa5}, !- Handle
  ASHRAE 189.1-2009 ExtWall Mass ClimateZone 5, !- Name
  ,                                       !- Surface Rendering Name
  {d342c1ef-ca0a-440f-8b94-f52359e0cf60}, !- Layer 1
  {a4a10b13-5648-4cef-a8a2-5eff52ecead9}, !- Layer 2
  {496a4e56-2921-46ed-8361-033ad05a0adb}, !- Layer 3
  {28c65852-ba1d-4828-a4b6-fa4f31fb6d40}; !- Layer 4

OS:StandardsInformation:Construction,
  {03c0fcea-b5d9-42bd-89a1-fd3440af2429}, !- Handle
  {b5443de2-9530-4534-ad1e-b957dcc34fa5}, !- Construction Name
  ExteriorWall,                           !- Intended Surface Type
  Mass;                                   !- Standards Construction Type

OS:Material,
  {496a4e56-2921-46ed-8361-033ad05a0adb}, !- Handle
  Wall Insulation [40],                   !- Name
  MediumRough,                            !- Roughness
  0.0793999999999999,                     !- Thickness {m}
  0.0432,                                 !- Conductivity {W/m-K}
  91,                                     !- Density {kg/m3}
  836.999999999999,                       !- Specific Heat {J/kg-K}
  0.9,                                    !- Thermal Absorptance
  0.5,                                    !- Solar Absorptance
  0.5;                                    !- Visible Absorptance

OS:Construction,
  {b9ca2ba5-d3b9-45ea-8af6-c46f4a181d22}, !- Handle
  ASHRAE 189.1-2009 ExtWall Mass ClimateZone 6, !- Name
  ,                                       !- Surface Rendering Name
  {d342c1ef-ca0a-440f-8b94-f52359e0cf60}, !- Layer 1
  {a4a10b13-5648-4cef-a8a2-5eff52ecead9}, !- Layer 2
  {50c3df7a-50cd-497f-99b6-b763fe0f59b1}, !- Layer 3
  {28c65852-ba1d-4828-a4b6-fa4f31fb6d40}; !- Layer 4

OS:StandardsInformation:Construction,
  {bd98cbe8-1586-462b-a31a-7a1caf813ab2}, !- Handle
  {b9ca2ba5-d3b9-45ea-8af6-c46f4a181d22}, !- Construction Name
  ExteriorWall,                           !- Intended Surface Type
  Mass;                                   !- Standards Construction Type

OS:Material,
  {50c3df7a-50cd-497f-99b6-b763fe0f59b1}, !- Handle
  Wall Insulation [42],                   !- Name
  MediumRough,                            !- Roughness
  0.0913999999999999,                     !- Thickness {m}
  0.0432,                                 !- Conductivity {W/m-K}
  91,                                     !- Density {kg/m3}
  836.999999999999,                       !- Specific Heat {J/kg-K}
  0.9,                                    !- Thermal Absorptance
  0.5,                                    !- Solar Absorptance
  0.5;                                    !- Visible Absorptance

OS:Construction,
  {344aef4f-b38d-40ab-91e6-3b8049ddcc6b}, !- Handle
  ASHRAE 189.1-2009 ExtWall Mass ClimateZone 7-8, !- Name
  ,                                       !- Surface Rendering Name
  {d342c1ef-ca0a-440f-8b94-f52359e0cf60}, !- Layer 1
  {a4a10b13-5648-4cef-a8a2-5eff52ecead9}, !- Layer 2
  {4364287a-f9f0-4396-ab6c-dda2acc46425}, !- Layer 3
  {28c65852-ba1d-4828-a4b6-fa4f31fb6d40}; !- Layer 4

OS:StandardsInformation:Construction,
  {d987c04b-2ad8-4f55-9682-42cb7f395270}, !- Handle
  {344aef4f-b38d-40ab-91e6-3b8049ddcc6b}, !- Construction Name
  ExteriorWall,                           !- Intended Surface Type
  Mass;                                   !- Standards Construction Type

OS:Material,
  {4364287a-f9f0-4396-ab6c-dda2acc46425}, !- Handle
  Wall Insulation [44],                   !- Name
  MediumRough,                            !- Roughness
  0.1104,                                 !- Thickness {m}
  0.0432,                                 !- Conductivity {W/m-K}
  91,                                     !- Density {kg/m3}
  836.999999999999,                       !- Specific Heat {J/kg-K}
  0.9,                                    !- Thermal Absorptance
  0.5,                                    !- Solar Absorptance
  0.5;                                    !- Visible Absorptance

OS:Construction,
  {789c989f-6b30-495f-8038-c3d5a40d6fba}, !- Handle
  ASHRAE 189.1-2009 ExtWall Mass ClimateZone alt-res 1, !- Name
  ,                                       !- Surface Rendering Name
  {d342c1ef-ca0a-440f-8b94-f52359e0cf60}, !- Layer 1
  {a4a10b13-5648-4cef-a8a2-5eff52ecead9}, !- Layer 2
  {6cb7f0d6-c172-4ed1-bd52-4d481ba987f2}, !- Layer 3
  {28c65852-ba1d-4828-a4b6-fa4f31fb6d40}; !- Layer 4

OS:StandardsInformation:Construction,
  {b8025ba0-4e46-422b-a825-a48e697e487f}, !- Handle
  {789c989f-6b30-495f-8038-c3d5a40d6fba}, !- Construction Name
  ExteriorWall,                           !- Intended Surface Type
  Mass;                                   !- Standards Construction Type

OS:Construction,
  {1f6efabb-38ae-4cca-8e0e-26a85e31299f}, !- Handle
  ASHRAE 189.1-2009 ExtWall Mass ClimateZone alt-res 2, !- Name
  ,                                       !- Surface Rendering Name
  {d342c1ef-ca0a-440f-8b94-f52359e0cf60}, !- Layer 1
  {a4a10b13-5648-4cef-a8a2-5eff52ecead9}, !- Layer 2
  {58b30d1f-b8ff-4a69-8a32-8a66a0eda297}, !- Layer 3
  {28c65852-ba1d-4828-a4b6-fa4f31fb6d40}; !- Layer 4

OS:StandardsInformation:Construction,
  {2940f68b-04f0-4302-bcbd-7e8353bfaf39}, !- Handle
  {1f6efabb-38ae-4cca-8e0e-26a85e31299f}, !- Construction Name
  ExteriorWall,                           !- Intended Surface Type
  Mass;                                   !- Standards Construction Type

OS:Construction,
  {941ccaf3-f13e-4df6-a295-a622d5ae5a98}, !- Handle
  ASHRAE 189.1-2009 ExtWall Mass ClimateZone alt-res 3, !- Name
  ,                                       !- Surface Rendering Name
  {d342c1ef-ca0a-440f-8b94-f52359e0cf60}, !- Layer 1
  {a4a10b13-5648-4cef-a8a2-5eff52ecead9}, !- Layer 2
  {3d5396b4-955d-400a-bf3e-bdb1c451d1b5}, !- Layer 3
  {28c65852-ba1d-4828-a4b6-fa4f31fb6d40}; !- Layer 4

OS:StandardsInformation:Construction,
  {e3412b62-fc70-49c9-9b76-d17b7dbd511c}, !- Handle
  {941ccaf3-f13e-4df6-a295-a622d5ae5a98}, !- Construction Name
  ExteriorWall,                           !- Intended Surface Type
  Mass;                                   !- Standards Construction Type

OS:Construction,
  {c1d5e28e-e8f9-47ca-adb2-4b773557baed}, !- Handle
  ASHRAE 189.1-2009 ExtWall Mass ClimateZone alt-res 4, !- Name
  ,                                       !- Surface Rendering Name
  {d342c1ef-ca0a-440f-8b94-f52359e0cf60}, !- Layer 1
  {a4a10b13-5648-4cef-a8a2-5eff52ecead9}, !- Layer 2
  {496a4e56-2921-46ed-8361-033ad05a0adb}, !- Layer 3
  {28c65852-ba1d-4828-a4b6-fa4f31fb6d40}; !- Layer 4

OS:StandardsInformation:Construction,
  {1b64fbc9-8dab-4296-a38f-5acd5d9519f5}, !- Handle
  {c1d5e28e-e8f9-47ca-adb2-4b773557baed}, !- Construction Name
  ExteriorWall,                           !- Intended Surface Type
  Mass;                                   !- Standards Construction Type

OS:Construction,
  {395371a7-dc7c-4d8e-be4a-d436275e5778}, !- Handle
  ASHRAE 189.1-2009 ExtWall Mass ClimateZone alt-res 5, !- Name
  ,                                       !- Surface Rendering Name
  {d342c1ef-ca0a-440f-8b94-f52359e0cf60}, !- Layer 1
  {a4a10b13-5648-4cef-a8a2-5eff52ecead9}, !- Layer 2
  {50c3df7a-50cd-497f-99b6-b763fe0f59b1}, !- Layer 3
  {28c65852-ba1d-4828-a4b6-fa4f31fb6d40}; !- Layer 4

OS:StandardsInformation:Construction,
  {c0f314bf-bec3-4b8a-b53c-84ea72f8fbf0}, !- Handle
  {395371a7-dc7c-4d8e-be4a-d436275e5778}, !- Construction Name
  ExteriorWall,                           !- Intended Surface Type
  Mass;                                   !- Standards Construction Type

OS:Construction,
  {5fc75feb-95eb-4c2a-9a5b-3647e35acc27}, !- Handle
  ASHRAE 189.1-2009 ExtWall Mass ClimateZone alt-res 6, !- Name
  ,                                       !- Surface Rendering Name
  {d342c1ef-ca0a-440f-8b94-f52359e0cf60}, !- Layer 1
  {a4a10b13-5648-4cef-a8a2-5eff52ecead9}, !- Layer 2
  {4364287a-f9f0-4396-ab6c-dda2acc46425}, !- Layer 3
  {28c65852-ba1d-4828-a4b6-fa4f31fb6d40}; !- Layer 4

OS:StandardsInformation:Construction,
  {789b1d76-c152-4336-a197-b1e93d9b0eb4}, !- Handle
  {5fc75feb-95eb-4c2a-9a5b-3647e35acc27}, !- Construction Name
  ExteriorWall,                           !- Intended Surface Type
  Mass;                                   !- Standards Construction Type

OS:Construction,
  {f9e8e3a3-b5b1-44c4-92a0-cd31dff01fcf}, !- Handle
  ASHRAE 189.1-2009 ExtWall Mass ClimateZone alt-res 7, !- Name
  ,                                       !- Surface Rendering Name
  {d342c1ef-ca0a-440f-8b94-f52359e0cf60}, !- Layer 1
  {a4a10b13-5648-4cef-a8a2-5eff52ecead9}, !- Layer 2
  {4364287a-f9f0-4396-ab6c-dda2acc46425}, !- Layer 3
  {28c65852-ba1d-4828-a4b6-fa4f31fb6d40}; !- Layer 4

OS:StandardsInformation:Construction,
  {c756c50e-523b-4cd7-a4c1-975f8bd9ff31}, !- Handle
  {f9e8e3a3-b5b1-44c4-92a0-cd31dff01fcf}, !- Construction Name
  ExteriorWall,                           !- Intended Surface Type
  Mass;                                   !- Standards Construction Type

OS:Construction,
  {5991a112-2dd5-4204-bc2d-909360ca2978}, !- Handle
  ASHRAE 189.1-2009 ExtWall Mass ClimateZone alt-res 8, !- Name