
OS:Version,
  {7c395ece-860d-4160-ac3c-bb62654b404e}, !- Handle
  1.3.3;                                  !- Version Identifier

OS:Construction,
  {64225b4d-bb6c-41f3-83c0-279f1254c337}, !- Handle
  ASHRAE 189.1-2009 AtticFloor ClimateZone 1-8, !- Name
  ,                                       !- Surface Rendering Name
  {e29b89a4-d55a-409f-b5ac-3ccd60d892ef}, !- Layer 1
  {93846808-b86b-4906-92b4-ffd8ca399c10}, !- Layer 2
  {e29b89a4-d55a-409f-b5ac-3ccd60d892ef}; !- Layer 3

OS:StandardsInformation:Construction,
  {3c6398cf-af9a-4ac8-b56e-05fb0306300e}, !- Handle
  {64225b4d-bb6c-41f3-83c0-279f1254c337}, !- Construction Name
  AtticFloor,                             !- Intended Surface Type
  WoodFramed;                             !- Standards Construction Type

OS:Material,
  {e29b89a4-d55a-409f-b5ac-3ccd60d892ef}, !- Handle
  1/2IN Gypsum,                           !- Name
  Smooth,                                 !- Roughness
  0.0127,                                 !- Thickness {m}
  0.16,                                   !- Conductivity {W/m-K}
  784.9,                                  !- Density {kg/m3}
  830.000000000001,                       !- Specific Heat {J/kg-K}
  0.9,                                    !- Thermal Absorptance
  0.92,                                   !- Solar Absorptance
  0.92;                                   !- Visible Absorptance

OS:Material,
  {93846808-b86b-4906-92b4-ffd8ca399c10}, !- Handle
  AtticFloor Insulation,                  !- Name
  MediumRough,                            !- Roughness
  0.2379,                                 !- Thickness {m}
  0.049,                                  !- Conductivity {W/m-K}
  265,                                    !- Density {kg/m3}
  836.800000000001,                       !- Specific Heat {J/kg-K}
  0.9,                                    !- Thermal Absorptance
  0.7,                                    !- Solar Absorptance
  0.7;                                    !- Visible Absorptance

OS:Construction,
  {e3ee7218-5d69-4d6d-bf6c-6f572daa928c}, !- Handle
  ASHRAE 189.1-2009 ExtRoof IEAD ClimateZone 1, !- Name
  ,                                       !- Surface Rendering Name
  {25d45403-33c8-4709-b2cc-6ce955969bad}, !- Layer 1
  {00230883-47fa-4d9b-9c27-18607639c3d9}, !- Layer 2
  {cc2bc8ea-11f6-4c6a-bc49-c34b461604b4}; !- Layer 3

OS:StandardsInformation:Construction,
  {ea1dc4a4-cafa-458d-87fe-18ddc11eaae8}, !- Handle
  {e3ee7218-5d69-4d6d-bf6c-6f572daa928c}, !- Construction Name
  ExteriorRoof,                           !- Intended Surface Type
  IEAD;                                   !- Standards Construction Type

OS:Material,
  {25d45403-33c8-4709-b2cc-6ce955969bad}, !- Handle
  Roof Membrane,                          !- Name
  VeryRough,                              !- Roughness
  0.0095,                                 !- Thickness {m}
  0.16,                                   !- Conductivity {W/m-K}
  1121.29,                                !- Density {kg/m3}
  1460,                                   !- Specific Heat {J/kg-K}
  0.9,                                    !- Thermal Absorptance
  0.7,                                    !- Solar Absorptance
  0.7;                                    !- Visible Absorptance

OS:Material,
  {00230883-47fa-4d9b-9c27-18607639c3d9}, !- Handle
  Roof Insulation [18],                   !- Name
  MediumRough,                            !- Roughness
  0.1693,                                 !- Thickness {m}
  0.049,                                  !- Conductivity {W/m-K}
  265,                                    !- Density {kg/m3}
  836.800000000001,                       !- Specific Heat {J/kg-K}
  0.9,                                    !- Thermal Absorptance
  0.7,                                    !- Solar Absorptance
  0.7;                                    !- Visible Absorptance

OS:Material,
  {cc2bc8ea-11f6-4c6a-bc49-c34b461604b4}, !- Handle
  Metal Decking,                          !- Name
  MediumSmooth,                           !- Roughness
  0.0015,                                 !- Thickness {m}
  45.006,                                 !- Conductivity {W/m-K}
  7680,                                   !- Density {kg/m3}
  418.4,                                  !- Specific Heat {J/kg-K}
  0.9,                                    !- Thermal Absorptance
  0.7,                                    !- Solar Absorptance
  0.3;                                    !- Visible Absorptance

OS:Construction,
  {ce54205b-bd1e-4c60-825a-43af12c480a5}, !- Handle
  ASHRAE 189.1-2009 ExtRoof IEAD ClimateZone 2-5, !- Name
  ,                                       !- Surface Rendering Name
  {25d45403-33c8-4709-b2cc-6ce955969bad}, !- Layer 1
  {d4fd3433-92db-4c7f-b3f3-75fae834bc1d}, !- Layer 2
  {cc2bc8ea-11f6-4c6a-bc49-c34b461604b4}; !- Layer 3

OS:StandardsInformation:Construction,
  {6c946e29-742a-4061-836e-315b48c90bdf}, !- Handle
  {ce54205b-bd1e-4c60-825a-43af12c480a5}, !- Construction Name
  ExteriorRoof,                           !- Intended Surface Type
  IEAD;                                   !- Standards Construction Type

OS:Material,
  {d4fd3433-92db-4c7f-b3f3-75fae834bc1d}, !- Handle
  Roof Insulation [21],                   !- Name
  MediumRough,                            !- Roughness
  0.2105,                                 !- Thickness {m}
  0.049,                                  !- Conductivity {W/m-K}
  265,                                    !- Density {kg/m3}
  836.800000000001,                       !- Specific Heat {J/kg-K}
  0.9,                                    !- Thermal Absorptance
  0.7,                                    !- Solar Absorptance
  0.7;                                    !- Visible Absorptance

OS:Construction,
  {f7040f2c-4433-46e2-9a5e-a1b42a0c8e84}, !- Handle
  ASHRAE 189.1-2009 ExtRoof IEAD ClimateZone 6, !- Name
  ,                                       !- Surface Rendering Name
  {25d45403-33c8-4709-b2cc-6ce955969bad}, !- Layer 1
  {dd5c7573-c826-4207-8ba8-a174008cbab7}, !- Layer 2
  {cc2bc8ea-11f6-4c6a-bc49-c34b461604b4}; !- Layer 3

OS:StandardsInformation:Construction,
  {98ef7ae5-583a-4dea-b137-514f171595f2}, !- Handle
  {f7040f2c-4433-46e2-9a5e-a1b42a0c8e84}, !- Construction Name
  ExteriorRoof,                           !- Intended Surface Type
  IEAD;                                   !- Standards Construction Type

OS:Material,
  {dd5c7573-c826-4207-8ba8-a174008cbab7}, !- Handle
  Roof Insulation [24],                   !- Name
  MediumRough,                            !- Roughness
  0.260100000000001,                      !- Thickness {m}
  0.049,                                  !- Conductivity {W/m-K}
  265,                                    !- Density {kg/m3}
  836.800000000001,                       !- Specific Heat {J/kg-K}
  0.9,                                    !- Thermal Absorptance
  0.7,                                    !- Solar Absorptance
  0.7;                                    !- Visible Absorptance

OS:Construction,
  {2c587010-cb0f-48ab-8314-73a09f781421}, !- Handle
  ASHRAE 189.1-2009 ExtRoof IEAD ClimateZone 7-8, !- Name
  ,                                       !- Surface Rendering Name
  {25d45403-33c8-4709-b2cc-6ce955969bad}, !- Layer 1
  {3318243f-1a1b-484c-9a74-9582c7d9515b}, !- Layer 2
  {cc2bc8ea-11f6-4c6a-bc49-c34b461604b4}; !- Layer 3

OS:StandardsInformation:Construction,
  {c41a256d-c447-4a0f-8c77-cc2d83ae120e}, !- Handle
  {2c587010-cb0f-48ab-8314-73a09f781421}, !- Construction Name
  ExteriorRoof,                           !- Intended Surface Type
  IEAD;                                   !- Standards Construction Type

OS:Material,
  {3318243f-1a1b-484c-9a74-9582c7d9515b}, !- Handle
  Roof Insulation [26],                   !- Name
  MediumRough,                            !- Roughness
  0.2941,                                 !- Thickness {m}
  0.049,                                  !- Conductivity {W/m-K}
  265,                                    !- Density {kg/m3}
  836.800000000001,                       !- Specific Heat {J/kg-K}
  0.9,                                    !- Thermal Absorptance
  0.7,                                    !- Solar Absorptance
  0.7;                                    !- Visible Absorptance

OS:Construction,
  {e22aefaf-9fc6-46cb-b437-d2f761e325af}, !- Handle
  ASHRAE 189.1-2009 ExtRoof Metal ClimateZone 1, !- Name
  ,                                       !- Surface Rendering Name
  {ad607ae0-9ee6-4c7d-8920-f5a4e14ae429}, !- Layer 1
  {16b51d16-f4fb-4cdf-a614-093068245e28}; !- Layer 2

OS:StandardsInformation:Construction,
  {6a970dc7-262b-4e65-9107-67d4f36adab1}, !- Handle
  {e22aefaf-9fc6-46cb-b437-d2f761e325af}, !- Construction Name
  ExteriorRoof,                           !- Intended Surface Type
  Metal;                                  !- Standards Construction Type

OS:Material,
  {ad607ae0-9ee6-4c7d-8920-f5a4e14ae429}, !- Handle
  Metal Roofing,                          !- Name
  MediumSmooth,                           !- Roughness
  0.0015,                                 !- Thickness {m}
  45.006,                                 !- Conductivity {W/m-K}
  7680,                                   !- Density {kg/m3}
  418.4,                                  !- Specific Heat {J/kg-K}
  0.9,                                    !- Thermal Absorptance
  0.3,                                    !- Solar Absorptance
  0.3;                                    !- Visible Absorptance

OS:Material,
  {16b51d16-f4fb-4cdf-a614-093068245e28}, !- Handle
  Roof Insulation [19],                   !- Name
  MediumRough,                            !- Roughness
  0.1868,                                 !- Thickness {m}
  0.049,                                  !- Conductivity {W/m-K}
  265,                                    !- Density {kg/m3}
  836.800000000001,                       !- Specific Heat {J/kg-K}
  0.9,                                    !- Thermal Absorptance
  0.7,                                    !- Solar Absorptance
  0.7;                                    !- Visible Absorptance

OS:Construction,
  {79830f2d-7af9-4e92-8540-effa49a1e272}, !- Handle
  ASHRAE 189.1-2009 ExtRoof Metal ClimateZone 2-5, !- Name
  ,                                       !- Surface Rendering Name
  {ad607ae0-9ee6-4c7d-8920-f5a4e14ae429}, !- Layer 1
  {9a49a689-fd52-42f7-9443-807641220f9e}; !- Layer 2

OS:StandardsInformation:Construction,
  {9a9796a4-3980-4fbc-94bc-c314fc782b3f}, !- Handle
  {79830f2d-7af9-4e92-8540-effa49a1e272}, !- Construction Name
  ExteriorRoof,                           !- Intended Surface Type
  Metal;                                  !- Standards Construction Type

OS:Material,
  {9a49a689-fd52-42f7-9443-807641220f9e}, !- Handle
  Roof Insulation [22],                   !- Name
  MediumRough,                            !- Roughness
  0.2358,                                 !- Thickness {m}
  0.049,                                  !- Conductivity {W/m-K}
  265,                                    !- Density {kg/m3}
  836.800000000001,                       !- Specific Heat {J/kg-K}
  0.9,                                    !- Thermal Absorptance
  0.7,                                    !- Solar Absorptance
  0.7;                                    !- Visible Absorptance

OS:Construction,
  {2f8bb5ce-1df9-4bf3-bf37-f224c59d4e08}, !- Handle
  ASHRAE 189.1-2009 ExtRoof Metal ClimateZone 6, !- Name
  ,                                       !- Surface Rendering Name
  {ad607ae0-9ee6-4c7d-8920-f5a4e14ae429}, !- Layer 1
  {f71f7903-0365-4948-953a-32dd26f003a0}; !- Layer 2

OS:StandardsInformation:Construction,
  {3e3c27e3-5067-4a28-b726-ae851386b055}, !- Handle
  {2f8bb5ce-1df9-4bf3-bf37-f224c59d4e08}, !- Construction Name
  ExteriorRoof,                           !- Intended Surface Type
  Metal;                                  !- Standards Construction Type

OS:Material,
  {f71f7903-0365-4948-953a-32dd26f003a0}, !- Handle
  Roof Insulation [25],                   !- Name
  MediumRough,                            !- Roughness
  0.263,                                  !- Thickness {m}
  0.049,                                  !- Conductivity {W/m-K}
  265,                                    !- Density {kg/m3}
  836.800000000001,                       !- Specific Heat {J/kg-K}
  0.9,                                    !- Thermal Absorptance
  0.7,                                    !- Solar Absorptance
  0.7;                                    !- Visible Absorptance

OS:Construction,
  {0ec8ff96-cdb2-4b51-bef7-4dd059d16b7b}, !- Handle
  ASHRAE 189.1-2009 ExtRoof Metal ClimateZone 7-8, !- Name
  ,                                       !- Surface Rendering Name
  {ad607ae0-9ee6-4c7d-8920-f5a4e14ae429}, !- Layer 1
  {64c49223-a919-437d-b43c-9d6a39cda9d6}; !- Layer 2

OS:StandardsInformation:Construction,
  {987937f2-4c1a-4b9c-8af9-a942996da8cf}, !- Handle
  {0ec8ff96-cdb2-4b51-bef7-4dd059d16b7b}, !- Construction Name
  ExteriorRoof,                           !- Intended Surface Type
  Metal;                                  !- Standards Construction Type

OS:Material,
  {64c49223-a919-437d-b43c-9d6a39cda9d6}, !- Handle
  Roof Insulation [27],                   !- Name
  MediumRough,                            !- Roughness
  0.297000000000001,                      !- Thickness {m}
  0.049,                                  !- Conductivity {W/m-K}
  265,                                    !- Density {kg/m3}
  836.800000000001,                       !- Specific Heat {J/kg-K}
  0.9,                                    !- Thermal Absorptance
  0.7,                                    !- Solar Absorptance
  0.7;                                    !- Visible Absorptance

OS:Construction,
  {c8f44f69-46ed-4801-ba6e-b4280aa624b1}, !- Handle
  ASHRAE 189.1-2009 ExtWall Mass ClimateZone 1, !- Name
  ,                                       !- Surface Rendering Name
  {0e52d9dd-bc11-4365-9cdd-ecea604d0796}, !- Layer 1
  {d280d817-5d85-4c24-905b-6db5e257bd84}, !- Layer 2
  {98ecd51d-d7ca-4721-be3e-9ed532d12f64}, !- Layer 3
  {e29b89a4-d55a-409f-b5ac-3ccd60d892ef}; !- Layer 4

OS:StandardsInformation:Construction,
  {8443532d-0509-44b2-ad22-a8526dba90ef}, !- Handle
  {c8f44f69-46ed-4801-ba6e-b4280aa624b1}, !- Construction Name
  ExteriorWall,                           !- Intended Surface Type
  Mass;                                   !- Standards Construction Type

OS:Material,
  {0e52d9dd-bc11-4365-9cdd-ecea604d0796}, !- Handle
  1IN Stucco,                             !- Name
  Smooth,                                 !- Roughness
  0.0253,                                 !- Thickness {m}
  0.691799999999999,                      !- Conductivity {W/m-K}
  1858,                                   !- Density {kg/m3}
  836.999999999999,                       !- Specific Heat {J/kg-K}
  0.9,                                    !- Thermal Absorptance
  0.92,                                   !- Solar Absorptance
  0.92;                                   !- Visible Absorptance

OS:Material,
  {d280d817-5d85-4c24-905b-6db5e257bd84}, !- Handle
  8IN Concrete HW,                        !- Name
  MediumRough,                            !- Roughness
  0.2033,                                 !- Thickness {m}
  1.72959999999999,                       !- Conductivity {W/m-K}
  2242.99999999999,                       !- Density {kg/m3}
  836.999999999999,                       !- Specific Heat {J/kg-K}
  0.9,                                    !- Thermal Absorptance
  0.65,                                   !- Solar Absorptance
  0.65;                                   !- Visible Absorptance

OS:Material,
  {98ecd51d-d7ca-4721-be3e-9ed532d12f64}, !- Handle
  Wall Insulation [31],                   !- Name
  MediumRough,                            !- Roughness
  0.0337000000000001,                     !- Thickness {m}
  0.0432,                                 !- Conductivity {W/m-K}
  91,                                     !- Density {kg/m3}
  836.999999999999,                       !- Specific Heat {J/kg-K}
  0.9,                                    !- Thermal Absorptance
  0.5,                                    !- Solar Absorptance
  0.5;                                    !- Visible Absorptance

OS:Construction,
  {87e98877-edbe-422d-bbe1-245e1d33597e}, !- Handle
  ASHRAE 189.1-2009 ExtWall Mass ClimateZone 2, !- Name
  ,                                       !- Surface Rendering Name
  {0e52d9dd-bc11-4365-9cdd-ecea604d0796}, !- Layer 1
  {d280d817-5d85-4c24-905b-6db5e257bd84}, !- Layer 2
  {335c6490-fb9d-4a82-a4b0-2765bc8406c7}, !- Layer 3
  {e29b89a4-d55a-409f-b5ac-3ccd60d892ef}; !- Layer 4

OS:StandardsInformation:Construction,
  {253d6c3b-4508-4eb3-8f60-94020d968846}, !- Handle
  {87e98877-edbe-422d-bbe1-245e1d33597e}, !- Construction Name
  ExteriorWall,                           !- Intended Surface Type
  Mass;                                   !- Standards Construction Type

OS:Material,
  {335c6490-fb9d-4a82-a4b0-2765bc8406c7}, !- Handle
  Wall Insulation [35],                   !- Name
  MediumRough,                            !- Roughness
  0.0452,                                 !- Thickness {m}
  0.0432,                                 !- Conductivity {W/m-K}
  91,                                     !- Density {kg/m3}
  836.999999999999,                       !- Specific Heat {J/kg-K}
  0.9,                                    !- Thermal Absorptance
  0.5,                                    !- Solar Absorptance
  0.5;                                    !- Visible Absorptance

OS:Construction,
  {495e08f2-f8a7-4c44-95ab-364f04ea7191}, !- Handle
  ASHRAE 189.1-2009 ExtWall Mass ClimateZone 3, !- Name
  ,                                       !- Surface Rendering Name
  {0e52d9dd-bc11-4365-9cdd-ecea604d0796}, !- Layer 1
  {d280d817-5d85-4c24-905b-6db5e257bd84}, !- Layer 2
  {1fb97dfe-7606-48d6-8732-ea8e2472af25}, !- Layer 3
  {e29b89a4-d55a-409f-b5ac-3ccd60d892ef}; !- Layer 4

OS:StandardsInformation:Construction,
  {bfd85558-1a07-45d3-a619-36c7c2cdbe4d}, !- Handle
  {495e08f2-f8a7-4c44-95ab-364f04ea7191}, !- Construction Name
  ExteriorWall,                           !- Intended Surface Type
  Mass;                                   !- Standards Construction Type

OS:Material,
  {1fb97dfe-7606-48d6-8732-ea8e2472af25}, !- Handle
  Wall Insulation [36],                   !- Name
  MediumRough,                            !- Roughness
  0.0565999999999999,                     !- Thickness {m}
  0.0432,                                 !- Conductivity {W/m-K}
  91,                                     !- Density {kg/m3}
  836.999999999999,                       !- Specific Heat {J/kg-K}
  0.9,                                    !- Thermal Absorptance
  0.5,                                    !- Solar Absorptance
  0.5;                                    !- Visible Absorptance

OS:Construction,
  {5500a073-9113-46db-9a30-f9d07a4d8b4b}, !- Handle
  ASHRAE 189.1-2009 ExtWall Mass ClimateZone 4, !- Name
  ,                                       !- Surface Rendering Name
  {0e52d9dd-bc11-4365-9cdd-ecea604d0796}, !- Layer 1
  {d280d817-5d85-4c24-905b-6db5e257bd84}, !- Layer 2
  {1402d5df-a4f4-47db-b035-9ecb6654502e}, !- Layer 3
  {e29b89a4-d55a-409f-b5ac-3ccd60d892ef}; !- Layer 4

OS:StandardsInformation:Construction,
  {968173f1-96f4-40e1-a348-a6f672fa4369}, !- Handle
  {5500a073-9113-46db-9a30-f9d07a4d8b4b}, !- Construction Name
  ExteriorWall,                           !- Intended Surface Type
  Mass;                                   !- Standards Construction Type

OS:Material,
  {1402d5df-a4f4-47db-b035-9ecb6654502e}, !- Handle
  Wall Insulation [37],                   !- Name
  MediumRough,                            !- Roughness
  0.0680999999999999,                     !- Thickness {m}
  0.0432,                                 !- Conductivity {W/m-K}
  91,                                     !- Density {kg/m3}
  836.999999999999,                       !- Specific Heat {J/kg-K}
  0.9,                                    !- Thermal Absorptance
  0.5,                                    !- Solar Absorptance
  0.5;                                    !- Visible Absorptance

OS:Construction,
  {cf8a5aed-ec86-4cfc-abff-9333edc33ddf}, !- Handle
  ASHRAE 189.1-2009 ExtWall Mass ClimateZone 5, !- Name
  ,                                       !- Surface Rendering Name
  {0e52d9dd-bc11-4365-9cdd-ecea604d0796}, !- Layer 1
  {d280d817-5d85-4c24-905b-6db5e257bd84}, !- Layer 2
  {f309f918-1a82-4d22-9d7e-d18f611b5a5f}, !- Layer 3
  {e29b89a4-d55a-409f-b5ac-3ccd60d892ef}; !- Layer 4

OS:StandardsInformation:Construction,
  {875eb512-3ec7-4815-8d93-e26725607be0}, !- Handle
  {cf8a5aed-ec86-4cfc-abff-9333edc33ddf}, !- Construction Name
  ExteriorWall,                           !- Intended Surface Type
  Mass;                                   !- Standards Construction Type

OS:Material,
  {f309f918-1a82-4d22-9d7e-d18f611b5a5f}, !- Handle
  Wall Insulation [40],                   !- Name
  MediumRough,                            !- Roughness
  0.0793999999999999,                     !- Thickness {m}
  0.0432,                                 !- Conductivity {W/m-K}
  91,                                     !- Density {kg/m3}
  836.999999999999,                       !- Specific Heat {J/kg-K}
  0.9,                                    !- Thermal Absorptance
  0.5,                                    !- Solar Absorptance
  0.5;                                    !- Visible Absorptance

OS:Construction,
  {fc50f70c-7c37-40e9-b888-758ab4bc4755}, !- Handle
  ASHRAE 189.1-2009 ExtWall Mass ClimateZone 6, !- Name
  ,                                       !- Surface Rendering Name
  {0e52d9dd-bc11-4365-9cdd-ecea604d0796}, !- Layer 1
  {d280d817-5d85-4c24-905b-6db5e257bd84}, !- Layer 2
  {f079ceaa-6e6b-4a9e-aee0-d1445c6934ed}, !- Layer 3
  {e29b89a4-d55a-409f-b5ac-3ccd60d892ef}; !- Layer 4

OS:StandardsInformation:Construction,
  {67f1731c-d747-4f27-9a60-94fbbb09dfa6}, !- Handle
  {fc50f70c-7c37-40e9-b888-758ab4bc4755}, !- Construction Name
  ExteriorWall,                           !- Intended Surface Type
  Mass;                                   !- Standards Construction Type

OS:Material,
  {f079ceaa-6e6b-4a9e-aee0-d1445c6934ed}, !- Handle
  Wall Insulation [42],                   !- Name
  MediumRough,                            !- Roughness
  0.0913999999999999,                     !- Thickness {m}
  0.0432,                                 !- Conductivity {W/m-K}
  91,                                     !- Density {kg/m3}
  836.999999999999,                       !- Specific Heat {J/kg-K}
  0.9,                                    !- Thermal Absorptance
  0.5,                                    !- Solar Absorptance
  0.5;                                    !- Visible Absorptance

OS:Construction,
  {035d1d0e-524f-4758-baeb-e77f539fc838}, !- Handle
  ASHRAE 189.1-2009 ExtWall Mass ClimateZone 7-8, !- Name
  ,                                       !- Surface Rendering Name
  {0e52d9dd-bc11-4365-9cdd-ecea604d0796}, !- Layer 1
  {d280d817-5d85-4c24-905b-6db5e257bd84}, !- Layer 2
  {853fa25a-ff91-432e-b52b-92e3da4c21ff}, !- Layer 3
  {e29b89a4-d55a-409f-b5ac-3ccd60d892ef}; !- Layer 4

OS:StandardsInformation:Construction,
  {12f2c148-b6a6-407d-b9a1-f5af5d989693}, !- Handle
  {035d1d0e-524f-4758-baeb-e77f539fc838}, !- Construction Name
  ExteriorWall,                           !- Intended Surface Type
  Mass;                                   !- Standards Construction Type

OS:Material,
  {853fa25a-ff91-432e-b52b-92e3da4c21ff}, !- Handle
  Wall Insulation [44],                   !- Name
  MediumRough,                            !- Roughness
  0.1104,                                 !- Thickness {m}
  0.0432,                                 !- Conductivity {W/m-K}
  91,                                     !- Density {kg/m3}
  836.999999999999,                       !- Specific Heat {J/kg-K}
  0.9,                                    !- Thermal Absorptance
  0.5,                                    !- Solar Absorptance
  0.5;                                    !- Visible Absorptance

OS:Construction,
  {5d5a72a1-1259-45b4-bccc-cdc2b4643c29}, !- Handle
  ASHRAE 189.1-2009 ExtWall Mass ClimateZone alt-res 1, !- Name
  ,                                       !- Surface Rendering Name
  {0e52d9dd-bc11-4365-9cdd-ecea604d0796}, !- Layer 1
  {d280d817-5d85-4c24-905b-6db5e257bd84}, !- Layer 2
  {335c6490-fb9d-4a82-a4b0-2765bc8406c7}, !- Layer 3
  {e29b89a4-d55a-409f-b5ac-3ccd60d892ef}; !- Layer 4

OS:StandardsInformation:Construction,
  {83de76f8-c889-4231-a418-adc64d18f852}, !- Handle
  {5d5a72a1-1259-45b4-bccc-cdc2b4643c29}, !- Construction Name
  ExteriorWall,                           !- Intended Surface Type
  Mass;                                   !- Standards Construction Type

OS:Construction,
  {aa82a114-8e2c-421f-b010-4a1cf8109b40}, !- Handle
  ASHRAE 189.1-2009 ExtWall Mass ClimateZone alt-res 2, !- Name
  ,                                       !- Surface Rendering Name
  {0e52d9dd-bc11-4365-9cdd-ecea604d0796}, !- Layer 1
  {d280d817-5d85-4c24-905b-6db5e257bd84}, !- Layer 2
  {1fb97dfe-7606-48d6-8732-ea8e2472af25}, !- Layer 3
  {e29b89a4-d55a-409f-b5ac-3ccd60d892ef}; !- Layer 4

OS:StandardsInformation:Construction,
  {193e9c43-46ef-4eca-90a8-55ea69c14050}, !- Handle
  {aa82a114-8e2c-421f-b010-4a1cf8109b40}, !- Construction Name
  ExteriorWall,                           !- Intended Surface Type
  Mass;                                   !- Standards Construction Type

OS:Construction,
  {c64c0de1-c713-49a5-a5b3-b39db0065dd6}, !- Handle
  ASHRAE 189.1-2009 ExtWall Mass ClimateZone alt-res 3, !- Name
  ,                                       !- Surface Rendering Name
  {0e52d9dd-bc11-4365-9cdd-ecea604d0796}, !- Layer 1
  {d280d817-5d85-4c24-905b-6db5e257bd84}, !- Layer 2
  {1402d5df-a4f4-47db-b035-9ecb6654502e}, !- Layer 3
  {e29b89a4-d55a-409f-b5ac-3ccd60d892ef}; !- Layer 4

OS:StandardsInformation:Construction,
  {61a589e2-8a08-40f0-a96e-e6d8b8a66bcf}, !- Handle
  {c64c0de1-c713-49a5-a5b3-b39db0065dd6}, !- Construction Name
  ExteriorWall,                           !- Intended Surface Type
  Mass;                                   !- Standards Construction Type

OS:Construction,
  {38cd6828-7c41-4d9d-be69-575f9650ef3b}, !- Handle
  ASHRAE 189.1-2009 ExtWall Mass ClimateZone alt-res 4, !- Name
  ,                                       !- Surface Rendering Name
  {0e52d9dd-bc11-4365-9cdd-ecea604d0796}, !- Layer 1
  {d280d817-5d85-4c24-905b-6db5e257bd84}, !- Layer 2
  {f309f918-1a82-4d22-9d7e-d18f611b5a5f}, !- Layer 3
  {e29b89a4-d55a-409f-b5ac-3ccd60d892ef}; !- Layer 4

OS:StandardsInformation:Construction,
  {caf5245d-b35b-4448-9aea-af2fdcdea664}, !- Handle
  {38cd6828-7c41-4d9d-be69-575f9650ef3b}, !- Construction Name
  ExteriorWall,                           !- Intended Surface Type
  Mass;                                   !- Standards Construction Type

OS:Construction,
  {998c15a2-d7f9-420b-a9a6-7696bbc55713}, !- Handle
  ASHRAE 189.1-2009 ExtWall Mass ClimateZone alt-res 5, !- Name
  ,                                       !- Surface Rendering Name
  {0e52d9dd-bc11-4365-9cdd-ecea604d0796}, !- Layer 1
  {d280d817-5d85-4c24-905b-6db5e257bd84}, !- Layer 2
  {f079ceaa-6e6b-4a9e-aee0-d1445c6934ed}, !- Layer 3
  {e29b89a4-d55a-409f-b5ac-3ccd60d892ef}; !- Layer 4

OS:StandardsInformation:Construction,
  {92273376-3e1b-4a10-9b0c-7f7c40ca9c85}, !- Handle
  {998c15a2-d7f9-420b-a9a6-7696bbc55713}, !- Construction Name
  ExteriorWall,                           !- Intended Surface Type
  Mass;                                   !- Standards Construction Type

OS:Construction,
  {fbd931d7-4d83-42dc-87d2-4c92de19b15e}, !- Handle
  ASHRAE 189.1-2009 ExtWall Mass ClimateZone alt-res 6, !- Name
  ,                                       !- Surface Rendering Name
  {0e52d9dd-bc11-4365-9cdd-ecea604d0796}, !- Layer 1
  {d280d817-5d85-4c24-905b-6db5e257bd84}, !- Layer 2
  {853fa25a-ff91-432e-b52b-92e3da4c21ff}, !- Layer 3
  {e29b89a4-d55a-409f-b5ac-3ccd60d892ef}; !- Layer 4

OS:StandardsInformation:Construction,
  {dfa1c376-68d0-4a06-a4f6-ae8bf5d15ca1}, !- Handle
  {fbd931d7-4d83-42dc-87d2-4c92de19b15e}, !- Construction Name
  ExteriorWall,                           !- Intended Surface Type
  Mass;                                   !- Standards Construction Type

OS:Construction,
  {3d3ed142-5b72-4980-949a-b9da0dd47ee3}, !- Handle
  ASHRAE 189.1-2009 ExtWall Mass ClimateZone alt-res 7, !- Name
  ,                                       !- Surface Rendering Name
  {0e52d9dd-bc11-4365-9cdd-ecea604d0796}, !- Layer 1
  {d280d817-5d85-4c24-905b-6db5e257bd84}, !- Layer 2
  {853fa25a-ff91-432e-b52b-92e3da4c21ff}, !- Layer 3
  {e29b89a4-d55a-409f-b5ac-3ccd60d892ef}; !- Layer 4

OS:StandardsInformation:Construction,
  {a1d0e308-98e5-478c-a901-6e61989ed14a}, !- Handle
  {3d3ed142-5b72-4980-949a-b9da0dd47ee3}, !- Construction Name
  ExteriorWall,                           !- Intended Surface Type
  Mass;                                   !- Standards Construction Type

OS:Construction,
  {32fc904d-9680-4917-9e3a-f36ce3bd02c4}, !- Handle
  ASHRAE 189.1-2009 ExtWall Mass ClimateZone alt-res 8, !- Name