
OS:Version,
  {c560c9a7-a3d8-4205-b690-b9cc138f6c1a}, !- Handle
  1.3.0;                                  !- Version Identifier

OS:Construction,
  {bb165525-7585-42d1-b538-dfbe12668919}, !- Handle
  ASHRAE 189.1-2009 AtticFloor ClimateZone 1-8, !- Name
  ,                                       !- Surface Rendering Name
  {01a05a19-40e3-44fb-8f79-0101b92f94ab}, !- Layer 1
  {cfcfc28b-5b5a-403d-b46b-7f1bfc3a6585}, !- Layer 2
  {01a05a19-40e3-44fb-8f79-0101b92f94ab}; !- Layer 3

OS:StandardsInformation:Construction,
  {6211ebea-45a3-46f1-9f64-1e004f0cae6c}, !- Handle
  {bb165525-7585-42d1-b538-dfbe12668919}, !- Construction Name
  AtticFloor,                             !- Intended Surface Type
  WoodFramed;                             !- Standards Construction Type

OS:Material,
  {01a05a19-40e3-44fb-8f79-0101b92f94ab}, !- Handle
  1/2IN Gypsum,                           !- Name
  Smooth,                                 !- Roughness
  0.0127,                                 !- Thickness {m}
  0.16,                                   !- Conductivity {W/m-K}
  784.9,                                  !- Density {kg/m3}
  830.000000000001,                       !- Specific Heat {J/kg-K}
  0.9,                                    !- Thermal Absorptance
  0.92,                                   !- Solar Absorptance
  0.92;                                   !- Visible Absorptance

OS:Material,
  {cfcfc28b-5b5a-403d-b46b-7f1bfc3a6585}, !- Handle
  AtticFloor Insulation,                  !- Name
  MediumRough,                            !- Roughness
  0.2379,                                 !- Thickness {m}
  0.049,                                  !- Conductivity {W/m-K}
  265,                                    !- Density {kg/m3}
  836.800000000001,                       !- Specific Heat {J/kg-K}
  0.9,                                    !- Thermal Absorptance
  0.7,                                    !- Solar Absorptance
  0.7;                                    !- Visible Absorptance

OS:Construction,
  {fbb4a040-410b-48f8-b7f8-dc72cf98a144}, !- Handle
  ASHRAE 189.1-2009 ExtRoof IEAD ClimateZone 1, !- Name
  ,                                       !- Surface Rendering Name
  {1c99db2d-e76a-41a8-9b80-62863a64551a}, !- Layer 1
  {9441b0d6-606d-4e9a-b52d-aec14ab08fc9}, !- Layer 2
  {d8a8665f-6a39-485e-b457-ac554dc75ee4}; !- Layer 3

OS:StandardsInformation:Construction,
  {c3edc7a6-0c16-4239-b4c3-8c2f2f45a948}, !- Handle
  {fbb4a040-410b-48f8-b7f8-dc72cf98a144}, !- Construction Name
  ExteriorRoof,                           !- Intended Surface Type
  IEAD;                                   !- Standards Construction Type

OS:Material,
  {1c99db2d-e76a-41a8-9b80-62863a64551a}, !- Handle
  Roof Membrane,                          !- Name
  VeryRough,                              !- Roughness
  0.0095,                                 !- Thickness {m}
  0.16,                                   !- Conductivity {W/m-K}
  1121.29,                                !- Density {kg/m3}
  1460,                                   !- Specific Heat {J/kg-K}
  0.9,                                    !- Thermal Absorptance
  0.7,                                    !- Solar Absorptance
  0.7;                                    !- Visible Absorptance

OS:Material,
  {9441b0d6-606d-4e9a-b52d-aec14ab08fc9}, !- Handle
  Roof Insulation [18],                   !- Name
  MediumRough,                            !- Roughness
  0.1693,                                 !- Thickness {m}
  0.049,                                  !- Conductivity {W/m-K}
  265,                                    !- Density {kg/m3}
  836.800000000001,                       !- Specific Heat {J/kg-K}
  0.9,                                    !- Thermal Absorptance
  0.7,                                    !- Solar Absorptance
  0.7;                                    !- Visible Absorptance

OS:Material,
  {d8a8665f-6a39-485e-b457-ac554dc75ee4}, !- Handle
  Metal Decking,                          !- Name
  MediumSmooth,                           !- Roughness
  0.0015,                                 !- Thickness {m}
  45.006,                                 !- Conductivity {W/m-K}
  7680,                                   !- Density {kg/m3}
  418.4,                                  !- Specific Heat {J/kg-K}
  0.9,                                    !- Thermal Absorptance
  0.7,                                    !- Solar Absorptance
  0.3;                                    !- Visible Absorptance

OS:Construction,
  {863e968d-0ead-40f7-9126-0d13ca6768f3}, !- Handle
  ASHRAE 189.1-2009 ExtRoof IEAD ClimateZone 2-5, !- Name
  ,                                       !- Surface Rendering Name
  {1c99db2d-e76a-41a8-9b80-62863a64551a}, !- Layer 1
  {97a1f2b9-f692-4292-853c-bcef94eaa70b}, !- Layer 2
  {d8a8665f-6a39-485e-b457-ac554dc75ee4}; !- Layer 3

OS:StandardsInformation:Construction,
  {7de66593-8db1-4fe3-acda-ce6c1a4ac445}, !- Handle
  {863e968d-0ead-40f7-9126-0d13ca6768f3}, !- Construction Name
  ExteriorRoof,                           !- Intended Surface Type
  IEAD;                                   !- Standards Construction Type

OS:Material,
  {97a1f2b9-f692-4292-853c-bcef94eaa70b}, !- Handle
  Roof Insulation [21],                   !- Name
  MediumRough,                            !- Roughness
  0.2105,                                 !- Thickness {m}
  0.049,                                  !- Conductivity {W/m-K}
  265,                                    !- Density {kg/m3}
  836.800000000001,                       !- Specific Heat {J/kg-K}
  0.9,                                    !- Thermal Absorptance
  0.7,                                    !- Solar Absorptance
  0.7;                                    !- Visible Absorptance

OS:Construction,
  {5a0769e2-ecdb-4bad-be92-23c541af93f9}, !- Handle
  ASHRAE 189.1-2009 ExtRoof IEAD ClimateZone 6, !- Name
  ,                                       !- Surface Rendering Name
  {1c99db2d-e76a-41a8-9b80-62863a64551a}, !- Layer 1
  {f6abbe86-e6b0-4b5b-b3d2-0727f379cf9c}, !- Layer 2
  {d8a8665f-6a39-485e-b457-ac554dc75ee4}; !- Layer 3

OS:StandardsInformation:Construction,
  {a4966c79-521f-4d1a-b207-6de3f79c177b}, !- Handle
  {5a0769e2-ecdb-4bad-be92-23c541af93f9}, !- Construction Name
  ExteriorRoof,                           !- Intended Surface Type
  IEAD;                                   !- Standards Construction Type

OS:Material,
  {f6abbe86-e6b0-4b5b-b3d2-0727f379cf9c}, !- Handle
  Roof Insulation [24],                   !- Name
  MediumRough,                            !- Roughness
  0.260100000000001,                      !- Thickness {m}
  0.049,                                  !- Conductivity {W/m-K}
  265,                                    !- Density {kg/m3}
  836.800000000001,                       !- Specific Heat {J/kg-K}
  0.9,                                    !- Thermal Absorptance
  0.7,                                    !- Solar Absorptance
  0.7;                                    !- Visible Absorptance

OS:Construction,
  {1d809a54-d86d-4e0d-b81c-bbebc5b7df31}, !- Handle
  ASHRAE 189.1-2009 ExtRoof IEAD ClimateZone 7-8, !- Name
  ,                                       !- Surface Rendering Name
  {1c99db2d-e76a-41a8-9b80-62863a64551a}, !- Layer 1
  {8323488a-25b8-4782-b5fe-10e708d9780d}, !- Layer 2
  {d8a8665f-6a39-485e-b457-ac554dc75ee4}; !- Layer 3

OS:StandardsInformation:Construction,
  {2de83f3d-121b-49d7-9911-50207698d860}, !- Handle
  {1d809a54-d86d-4e0d-b81c-bbebc5b7df31}, !- Construction Name
  ExteriorRoof,                           !- Intended Surface Type
  IEAD;                                   !- Standards Construction Type

OS:Material,
  {8323488a-25b8-4782-b5fe-10e708d9780d}, !- Handle
  Roof Insulation [26],                   !- Name
  MediumRough,                            !- Roughness
  0.2941,                                 !- Thickness {m}
  0.049,                                  !- Conductivity {W/m-K}
  265,                                    !- Density {kg/m3}
  836.800000000001,                       !- Specific Heat {J/kg-K}
  0.9,                                    !- Thermal Absorptance
  0.7,                                    !- Solar Absorptance
  0.7;                                    !- Visible Absorptance

OS:Construction,
  {67f94218-6ab1-4440-8386-b976c0fa93ed}, !- Handle
  ASHRAE 189.1-2009 ExtRoof Metal ClimateZone 1, !- Name
  ,                                       !- Surface Rendering Name
  {629c96b5-2c2b-4769-917e-b65dc41fdda2}, !- Layer 1
  {ac8cfadd-74ed-4126-8b7f-06df3ed3a5cc}; !- Layer 2

OS:StandardsInformation:Construction,
  {00578811-9b26-4bc8-a8f4-e598c9222d56}, !- Handle
  {67f94218-6ab1-4440-8386-b976c0fa93ed}, !- Construction Name
  ExteriorRoof,                           !- Intended Surface Type
  Metal;                                  !- Standards Construction Type

OS:Material,
  {629c96b5-2c2b-4769-917e-b65dc41fdda2}, !- Handle
  Metal Roofing,                          !- Name
  MediumSmooth,                           !- Roughness
  0.0015,                                 !- Thickness {m}
  45.006,                                 !- Conductivity {W/m-K}
  7680,                                   !- Density {kg/m3}
  418.4,                                  !- Specific Heat {J/kg-K}
  0.9,                                    !- Thermal Absorptance
  0.3,                                    !- Solar Absorptance
  0.3;                                    !- Visible Absorptance

OS:Material,
  {ac8cfadd-74ed-4126-8b7f-06df3ed3a5cc}, !- Handle
  Roof Insulation [19],                   !- Name
  MediumRough,                            !- Roughness
  0.1868,                                 !- Thickness {m}
  0.049,                                  !- Conductivity {W/m-K}
  265,                                    !- Density {kg/m3}
  836.800000000001,                       !- Specific Heat {J/kg-K}
  0.9,                                    !- Thermal Absorptance
  0.7,                                    !- Solar Absorptance
  0.7;                                    !- Visible Absorptance

OS:Construction,
  {a7f08dea-fa2b-4d8f-a3e9-8b381db30194}, !- Handle
  ASHRAE 189.1-2009 ExtRoof Metal ClimateZone 2-5, !- Name
  ,                                       !- Surface Rendering Name
  {629c96b5-2c2b-4769-917e-b65dc41fdda2}, !- Layer 1
  {c0687e7e-09d8-4fc8-b576-2df4a0a1032a}; !- Layer 2

OS:StandardsInformation:Construction,
  {f7c602a9-8c67-4e9b-ba4d-d104fa2f389c}, !- Handle
  {a7f08dea-fa2b-4d8f-a3e9-8b381db30194}, !- Construction Name
  ExteriorRoof,                           !- Intended Surface Type
  Metal;                                  !- Standards Construction Type

OS:Material,
  {c0687e7e-09d8-4fc8-b576-2df4a0a1032a}, !- Handle
  Roof Insulation [22],                   !- Name
  MediumRough,                            !- Roughness
  0.2358,                                 !- Thickness {m}
  0.049,                                  !- Conductivity {W/m-K}
  265,                                    !- Density {kg/m3}
  836.800000000001,                       !- Specific Heat {J/kg-K}
  0.9,                                    !- Thermal Absorptance
  0.7,                                    !- Solar Absorptance
  0.7;                                    !- Visible Absorptance

OS:Construction,
  {99c5d0e9-3ac2-4979-aa3d-f8bf4c8736c4}, !- Handle
  ASHRAE 189.1-2009 ExtRoof Metal ClimateZone 6, !- Name
  ,                                       !- Surface Rendering Name
  {629c96b5-2c2b-4769-917e-b65dc41fdda2}, !- Layer 1
  {3f0f7d82-d06c-455c-972c-36db1e21dfdb}; !- Layer 2

OS:StandardsInformation:Construction,
  {279af68c-7f7d-4d71-a1e3-777af66c7cef}, !- Handle
  {99c5d0e9-3ac2-4979-aa3d-f8bf4c8736c4}, !- Construction Name
  ExteriorRoof,                           !- Intended Surface Type
  Metal;                                  !- Standards Construction Type

OS:Material,
  {3f0f7d82-d06c-455c-972c-36db1e21dfdb}, !- Handle
  Roof Insulation [25],                   !- Name
  MediumRough,                            !- Roughness
  0.263,                                  !- Thickness {m}
  0.049,                                  !- Conductivity {W/m-K}
  265,                                    !- Density {kg/m3}
  836.800000000001,                       !- Specific Heat {J/kg-K}
  0.9,                                    !- Thermal Absorptance
  0.7,                                    !- Solar Absorptance
  0.7;                                    !- Visible Absorptance

OS:Construction,
  {a1a48518-0a14-40e4-8f27-78edd4dc9244}, !- Handle
  ASHRAE 189.1-2009 ExtRoof Metal ClimateZone 7-8, !- Name
  ,                                       !- Surface Rendering Name
  {629c96b5-2c2b-4769-917e-b65dc41fdda2}, !- Layer 1
  {7f1c2f96-303f-4229-9f8d-f235e66e3bb0}; !- Layer 2

OS:StandardsInformation:Construction,
  {b4ea4505-c369-410a-8316-b7c80a6474bb}, !- Handle
  {a1a48518-0a14-40e4-8f27-78edd4dc9244}, !- Construction Name
  ExteriorRoof,                           !- Intended Surface Type
  Metal;                                  !- Standards Construction Type

OS:Material,
  {7f1c2f96-303f-4229-9f8d-f235e66e3bb0}, !- Handle
  Roof Insulation [27],                   !- Name
  MediumRough,                            !- Roughness
  0.297000000000001,                      !- Thickness {m}
  0.049,                                  !- Conductivity {W/m-K}
  265,                                    !- Density {kg/m3}
  836.800000000001,                       !- Specific Heat {J/kg-K}
  0.9,                                    !- Thermal Absorptance
  0.7,                                    !- Solar Absorptance
  0.7;                                    !- Visible Absorptance

OS:Construction,
  {8e8def1b-2b9c-4521-a6c6-551e3189530c}, !- Handle
  ASHRAE 189.1-2009 ExtWall Mass ClimateZone 1, !- Name
  ,                                       !- Surface Rendering Name
  {9b954f74-d66b-43a8-bc34-58ec52138807}, !- Layer 1
  {4a628176-e4e5-4644-b6e6-79b1abe05c90}, !- Layer 2
  {cea0e282-3c14-46d8-baa3-bfafc06dcb88}, !- Layer 3
  {01a05a19-40e3-44fb-8f79-0101b92f94ab}; !- Layer 4

OS:StandardsInformation:Construction,
  {c574547f-f77a-45e7-8f95-26d630479b8b}, !- Handle
  {8e8def1b-2b9c-4521-a6c6-551e3189530c}, !- Construction Name
  ExteriorWall,                           !- Intended Surface Type
  Mass;                                   !- Standards Construction Type

OS:Material,
  {9b954f74-d66b-43a8-bc34-58ec52138807}, !- Handle
  1IN Stucco,                             !- Name
  Smooth,                                 !- Roughness
  0.0253,                                 !- Thickness {m}
  0.691799999999999,                      !- Conductivity {W/m-K}
  1858,                                   !- Density {kg/m3}
  836.999999999999,                       !- Specific Heat {J/kg-K}
  0.9,                                    !- Thermal Absorptance
  0.92,                                   !- Solar Absorptance
  0.92;                                   !- Visible Absorptance

OS:Material,
  {4a628176-e4e5-4644-b6e6-79b1abe05c90}, !- Handle
  8IN Concrete HW,                        !- Name
  MediumRough,                            !- Roughness
  0.2033,                                 !- Thickness {m}
  1.72959999999999,                       !- Conductivity {W/m-K}
  2242.99999999999,                       !- Density {kg/m3}
  836.999999999999,                       !- Specific Heat {J/kg-K}
  0.9,                                    !- Thermal Absorptance
  0.65,                                   !- Solar Absorptance
  0.65;                                   !- Visible Absorptance

OS:Material,
  {cea0e282-3c14-46d8-baa3-bfafc06dcb88}, !- Handle
  Wall Insulation [31],                   !- Name
  MediumRough,                            !- Roughness
  0.0337000000000001,                     !- Thickness {m}
  0.0432,                                 !- Conductivity {W/m-K}
  91,                                     !- Density {kg/m3}
  836.999999999999,                       !- Specific Heat {J/kg-K}
  0.9,                                    !- Thermal Absorptance
  0.5,                                    !- Solar Absorptance
  0.5;                                    !- Visible Absorptance

OS:Construction,
  {94d56526-1192-4ade-b00d-f0bbe12430a7}, !- Handle
  ASHRAE 189.1-2009 ExtWall Mass ClimateZone 2, !- Name
  ,                                       !- Surface Rendering Name
  {9b954f74-d66b-43a8-bc34-58ec52138807}, !- Layer 1
  {4a628176-e4e5-4644-b6e6-79b1abe05c90}, !- Layer 2
  {aef97b04-46e8-4a27-8fdf-14a8a90c3a3a}, !- Layer 3
  {01a05a19-40e3-44fb-8f79-0101b92f94ab}; !- Layer 4

OS:StandardsInformation:Construction,
  {64811172-cd0b-4998-b415-9b394a29af75}, !- Handle
  {94d56526-1192-4ade-b00d-f0bbe12430a7}, !- Construction Name
  ExteriorWall,                           !- Intended Surface Type
  Mass;                                   !- Standards Construction Type

OS:Material,
  {aef97b04-46e8-4a27-8fdf-14a8a90c3a3a}, !- Handle
  Wall Insulation [35],                   !- Name
  MediumRough,                            !- Roughness
  0.0452,                                 !- Thickness {m}
  0.0432,                                 !- Conductivity {W/m-K}
  91,                                     !- Density {kg/m3}
  836.999999999999,                       !- Specific Heat {J/kg-K}
  0.9,                                    !- Thermal Absorptance
  0.5,                                    !- Solar Absorptance
  0.5;                                    !- Visible Absorptance

OS:Construction,
  {8942e050-7b4f-4964-b3a1-7fd2ced77db6}, !- Handle
  ASHRAE 189.1-2009 ExtWall Mass ClimateZone 3, !- Name
  ,                                       !- Surface Rendering Name
  {9b954f74-d66b-43a8-bc34-58ec52138807}, !- Layer 1
  {4a628176-e4e5-4644-b6e6-79b1abe05c90}, !- Layer 2
  {ad03c4f2-8c5a-4842-a6ba-833cee7ef58d}, !- Layer 3
  {01a05a19-40e3-44fb-8f79-0101b92f94ab}; !- Layer 4

OS:StandardsInformation:Construction,
  {e52e20e4-d9bd-4a7a-b16b-57acfeb7b4e7}, !- Handle
  {8942e050-7b4f-4964-b3a1-7fd2ced77db6}, !- Construction Name
  ExteriorWall,                           !- Intended Surface Type
  Mass;                                   !- Standards Construction Type

OS:Material,
  {ad03c4f2-8c5a-4842-a6ba-833cee7ef58d}, !- Handle
  Wall Insulation [36],                   !- Name
  MediumRough,                            !- Roughness
  0.0565999999999999,                     !- Thickness {m}
  0.0432,                                 !- Conductivity {W/m-K}
  91,                                     !- Density {kg/m3}
  836.999999999999,                       !- Specific Heat {J/kg-K}
  0.9,                                    !- Thermal Absorptance
  0.5,                                    !- Solar Absorptance
  0.5;                                    !- Visible Absorptance

OS:Construction,
  {d27e0b6e-631d-4e29-b58e-95f4e037f3df}, !- Handle
  ASHRAE 189.1-2009 ExtWall Mass ClimateZone 4, !- Name
  ,                                       !- Surface Rendering Name
  {9b954f74-d66b-43a8-bc34-58ec52138807}, !- Layer 1
  {4a628176-e4e5-4644-b6e6-79b1abe05c90}, !- Layer 2
  {edb9dc8b-12c7-4e95-8bd0-d4b73693fccf}, !- Layer 3
  {01a05a19-40e3-44fb-8f79-0101b92f94ab}; !- Layer 4

OS:StandardsInformation:Construction,
  {0bce9188-c228-44f2-839d-a628da4bbcbe}, !- Handle
  {d27e0b6e-631d-4e29-b58e-95f4e037f3df}, !- Construction Name
  ExteriorWall,                           !- Intended Surface Type
  Mass;                                   !- Standards Construction Type

OS:Material,
  {edb9dc8b-12c7-4e95-8bd0-d4b73693fccf}, !- Handle
  Wall Insulation [37],                   !- Name
  MediumRough,                            !- Roughness
  0.0680999999999999,                     !- Thickness {m}
  0.0432,                                 !- Conductivity {W/m-K}
  91,                                     !- Density {kg/m3}
  836.999999999999,                       !- Specific Heat {J/kg-K}
  0.9,                                    !- Thermal Absorptance
  0.5,                                    !- Solar Absorptance
  0.5;                                    !- Visible Absorptance

OS:Construction,
  {0bb9bd5c-fbc8-4a55-98ce-19dac6d80472}, !- Handle
  ASHRAE 189.1-2009 ExtWall Mass ClimateZone 5, !- Name
  ,                                       !- Surface Rendering Name
  {9b954f74-d66b-43a8-bc34-58ec52138807}, !- Layer 1
  {4a628176-e4e5-4644-b6e6-79b1abe05c90}, !- Layer 2
  {67334afe-1f80-42e3-a0ab-1f8409f7fb6e}, !- Layer 3
  {01a05a19-40e3-44fb-8f79-0101b92f94ab}; !- Layer 4

OS:StandardsInformation:Construction,
  {f43a8f35-a999-44b0-8314-08c8a6667bbb}, !- Handle
  {0bb9bd5c-fbc8-4a55-98ce-19dac6d80472}, !- Construction Name
  ExteriorWall,                           !- Intended Surface Type
  Mass;                                   !- Standards Construction Type

OS:Material,
  {67334afe-1f80-42e3-a0ab-1f8409f7fb6e}, !- Handle
  Wall Insulation [40],                   !- Name
  MediumRough,                            !- Roughness
  0.0793999999999999,                     !- Thickness {m}
  0.0432,                                 !- Conductivity {W/m-K}
  91,                                     !- Density {kg/m3}
  836.999999999999,                       !- Specific Heat {J/kg-K}
  0.9,                                    !- Thermal Absorptance
  0.5,                                    !- Solar Absorptance
  0.5;                                    !- Visible Absorptance

OS:Construction,
  {e49877d6-bb4a-4172-856f-92d5a94eae98}, !- Handle
  ASHRAE 189.1-2009 ExtWall Mass ClimateZone 6, !- Name
  ,                                       !- Surface Rendering Name
  {9b954f74-d66b-43a8-bc34-58ec52138807}, !- Layer 1
  {4a628176-e4e5-4644-b6e6-79b1abe05c90}, !- Layer 2
  {1fd696f8-a1bb-417c-9c26-157ce1ea0ac6}, !- Layer 3
  {01a05a19-40e3-44fb-8f79-0101b92f94ab}; !- Layer 4

OS:StandardsInformation:Construction,
  {9e9d88fd-4785-428e-a861-0c8bad2003d2}, !- Handle
  {e49877d6-bb4a-4172-856f-92d5a94eae98}, !- Construction Name
  ExteriorWall,                           !- Intended Surface Type
  Mass;                                   !- Standards Construction Type

OS:Material,
  {1fd696f8-a1bb-417c-9c26-157ce1ea0ac6}, !- Handle
  Wall Insulation [42],                   !- Name
  MediumRough,                            !- Roughness
  0.0913999999999999,                     !- Thickness {m}
  0.0432,                                 !- Conductivity {W/m-K}
  91,                                     !- Density {kg/m3}
  836.999999999999,                       !- Specific Heat {J/kg-K}
  0.9,                                    !- Thermal Absorptance
  0.5,                                    !- Solar Absorptance
  0.5;                                    !- Visible Absorptance

OS:Construction,
  {2a05a9d6-9765-4d3d-87b9-831ebba39477}, !- Handle
  ASHRAE 189.1-2009 ExtWall Mass ClimateZone 7-8, !- Name
  ,                                       !- Surface Rendering Name
  {9b954f74-d66b-43a8-bc34-58ec52138807}, !- Layer 1
  {4a628176-e4e5-4644-b6e6-79b1abe05c90}, !- Layer 2
  {f859aeda-ec88-4f9d-8813-368d1cc5214f}, !- Layer 3
  {01a05a19-40e3-44fb-8f79-0101b92f94ab}; !- Layer 4

OS:StandardsInformation:Construction,
  {c2ca9356-c049-46a2-8af3-db5957253555}, !- Handle
  {2a05a9d6-9765-4d3d-87b9-831ebba39477}, !- Construction Name
  ExteriorWall,                           !- Intended Surface Type
  Mass;                                   !- Standards Construction Type

OS:Material,
  {f859aeda-ec88-4f9d-8813-368d1cc5214f}, !- Handle
  Wall Insulation [44],                   !- Name
  MediumRough,                            !- Roughness
  0.1104,                                 !- Thickness {m}
  0.0432,                                 !- Conductivity {W/m-K}
  91,                                     !- Density {kg/m3}
  836.999999999999,                       !- Specific Heat {J/kg-K}
  0.9,                                    !- Thermal Absorptance
  0.5,                                    !- Solar Absorptance
  0.5;                                    !- Visible Absorptance

OS:Construction,
  {a2e77ebb-282b-4820-93c8-99107417596b}, !- Handle
  ASHRAE 189.1-2009 ExtWall Mass ClimateZone alt-res 1, !- Name
  ,                                       !- Surface Rendering Name
  {9b954f74-d66b-43a8-bc34-58ec52138807}, !- Layer 1
  {4a628176-e4e5-4644-b6e6-79b1abe05c90}, !- Layer 2
  {aef97b04-46e8-4a27-8fdf-14a8a90c3a3a}, !- Layer 3
  {01a05a19-40e3-44fb-8f79-0101b92f94ab}; !- Layer 4

OS:StandardsInformation:Construction,
  {14db9896-f3fe-4426-8d4a-6890a77a4477}, !- Handle
  {a2e77ebb-282b-4820-93c8-99107417596b}, !- Construction Name
  ExteriorWall,                           !- Intended Surface Type
  Mass;                                   !- Standards Construction Type

OS:Construction,
  {22fc658e-313b-46b2-a8e7-bc67fe392f97}, !- Handle
  ASHRAE 189.1-2009 ExtWall Mass ClimateZone alt-res 2, !- Name
  ,                                       !- Surface Rendering Name
  {9b954f74-d66b-43a8-bc34-58ec52138807}, !- Layer 1
  {4a628176-e4e5-4644-b6e6-79b1abe05c90}, !- Layer 2
  {ad03c4f2-8c5a-4842-a6ba-833cee7ef58d}, !- Layer 3
  {01a05a19-40e3-44fb-8f79-0101b92f94ab}; !- Layer 4

OS:StandardsInformation:Construction,
  {effdd6bd-24d5-4b7c-9da3-9551e6eb9736}, !- Handle
  {22fc658e-313b-46b2-a8e7-bc67fe392f97}, !- Construction Name
  ExteriorWall,                           !- Intended Surface Type
  Mass;                                   !- Standards Construction Type

OS:Construction,
  {663e9ebb-ad96-46c4-a119-b32b7f08f36b}, !- Handle
  ASHRAE 189.1-2009 ExtWall Mass ClimateZone alt-res 3, !- Name
  ,                                       !- Surface Rendering Name
  {9b954f74-d66b-43a8-bc34-58ec52138807}, !- Layer 1
  {4a628176-e4e5-4644-b6e6-79b1abe05c90}, !- Layer 2
  {edb9dc8b-12c7-4e95-8bd0-d4b73693fccf}, !- Layer 3
  {01a05a19-40e3-44fb-8f79-0101b92f94ab}; !- Layer 4

OS:StandardsInformation:Construction,
  {6b256544-f67b-48fe-9bb6-b499ffaedb99}, !- Handle
  {663e9ebb-ad96-46c4-a119-b32b7f08f36b}, !- Construction Name
  ExteriorWall,                           !- Intended Surface Type
  Mass;                                   !- Standards Construction Type

OS:Construction,
  {db05e423-65c7-477e-995a-d6980702b58c}, !- Handle
  ASHRAE 189.1-2009 ExtWall Mass ClimateZone alt-res 4, !- Name
  ,                                       !- Surface Rendering Name
  {9b954f74-d66b-43a8-bc34-58ec52138807}, !- Layer 1
  {4a628176-e4e5-4644-b6e6-79b1abe05c90}, !- Layer 2
  {67334afe-1f80-42e3-a0ab-1f8409f7fb6e}, !- Layer 3
  {01a05a19-40e3-44fb-8f79-0101b92f94ab}; !- Layer 4

OS:StandardsInformation:Construction,
  {e2bf280d-7e03-456a-8d9f-4fc178608257}, !- Handle
  {db05e423-65c7-477e-995a-d6980702b58c}, !- Construction Name
  ExteriorWall,                           !- Intended Surface Type
  Mass;                                   !- Standards Construction Type

OS:Construction,
  {5bdbb94c-ab7b-466a-b11b-9549a61692da}, !- Handle
  ASHRAE 189.1-2009 ExtWall Mass ClimateZone alt-res 5, !- Name
  ,                                       !- Surface Rendering Name
  {9b954f74-d66b-43a8-bc34-58ec52138807}, !- Layer 1
  {4a628176-e4e5-4644-b6e6-79b1abe05c90}, !- Layer 2
  {1fd696f8-a1bb-417c-9c26-157ce1ea0ac6}, !- Layer 3
  {01a05a19-40e3-44fb-8f79-0101b92f94ab}; !- Layer 4

OS:StandardsInformation:Construction,
  {7ae63e90-1178-4c32-9dcb-849f2cbebf9e}, !- Handle
  {5bdbb94c-ab7b-466a-b11b-9549a61692da}, !- Construction Name
  ExteriorWall,                           !- Intended Surface Type
  Mass;                                   !- Standards Construction Type

OS:Construction,
  {585331c9-6fb1-4f0b-a231-d6f64d5e7e3b}, !- Handle
  ASHRAE 189.1-2009 ExtWall Mass ClimateZone alt-res 6, !- Name
  ,                                       !- Surface Rendering Name
  {9b954f74-d66b-43a8-bc34-58ec52138807}, !- Layer 1
  {4a628176-e4e5-4644-b6e6-79b1abe05c90}, !- Layer 2
  {f859aeda-ec88-4f9d-8813-368d1cc5214f}, !- Layer 3
  {01a05a19-40e3-44fb-8f79-0101b92f94ab}; !- Layer 4

OS:StandardsInformation:Construction,
  {5914c9d7-1a98-44f4-88ff-dca89b3f0d74}, !- Handle
  {585331c9-6fb1-4f0b-a231-d6f64d5e7e3b}, !- Construction Name
  ExteriorWall,                           !- Intended Surface Type
  Mass;                                   !- Standards Construction Type

OS:Construction,
  {de880e1c-b7e4-4c6d-979c-41a6251131ef}, !- Handle
  ASHRAE 189.1-2009 ExtWall Mass ClimateZone alt-res 7, !- Name
  ,                                       !- Surface Rendering Name
  {9b954f74-d66b-43a8-bc34-58ec52138807}, !- Layer 1
  {4a628176-e4e5-4644-b6e6-79b1abe05c90}, !- Layer 2
  {f859aeda-ec88-4f9d-8813-368d1cc5214f}, !- Layer 3
  {01a05a19-40e3-44fb-8f79-0101b92f94ab}; !- Layer 4

OS:StandardsInformation:Construction,
  {8884311d-df96-48bd-b0fb-e38f16d1a958}, !- Handle
  {de880e1c-b7e4-4c6d-979c-41a6251131ef}, !- Construction Name
  ExteriorWall,                           !- Intended Surface Type
  Mass;                                   !- Standards Construction Type

OS:Construction,
  {b3eb2d86-a38f-47cd-b7e6-09d490b98463}, !- Handle
  ASHRAE 189.1-2009 ExtWall Mass ClimateZone alt-res 8, !- Name