
OS:Version,
  {e425b34a-41c8-46d6-b67f-036b95b9df44}, !- Handle
  1.4.0;                                  !- Version Identifier

OS:Construction,
  {4059bb3f-71ee-42b4-b81d-13ede68ed6ab}, !- Handle
  ASHRAE 189.1-2009 AtticFloor ClimateZone 1-8, !- Name
  ,                                       !- Surface Rendering Name
  {a465bccc-fd58-4261-a118-cd5059913206}, !- Layer 1
  {2f1f0f7c-d418-411b-b6ca-ad50e55eef78}, !- Layer 2
  {a465bccc-fd58-4261-a118-cd5059913206}; !- Layer 3

OS:StandardsInformation:Construction,
  {fa76b3fe-9474-4109-8d2f-d1e03c1042e9}, !- Handle
  {4059bb3f-71ee-42b4-b81d-13ede68ed6ab}, !- Construction Name
  AtticFloor,                             !- Intended Surface Type
  WoodFramed;                             !- Standards Construction Type

OS:Material,
  {a465bccc-fd58-4261-a118-cd5059913206}, !- Handle
  1/2IN Gypsum,                           !- Name
  Smooth,                                 !- Roughness
  0.0127,                                 !- Thickness {m}
  0.16,                                   !- Conductivity {W/m-K}
  784.9,                                  !- Density {kg/m3}
  830.000000000001,                       !- Specific Heat {J/kg-K}
  0.9,                                    !- Thermal Absorptance
  0.4,                                    !- Solar Absorptance
  0.4;                                    !- Visible Absorptance

OS:Material,
  {2f1f0f7c-d418-411b-b6ca-ad50e55eef78}, !- Handle
  AtticFloor Insulation,                  !- Name
  MediumRough,                            !- Roughness
  0.2379,                                 !- Thickness {m}
  0.049,                                  !- Conductivity {W/m-K}
  265,                                    !- Density {kg/m3}
  836.800000000001,                       !- Specific Heat {J/kg-K}
  0.9,                                    !- Thermal Absorptance
  0.7,                                    !- Solar Absorptance
  0.7;                                    !- Visible Absorptance

OS:Construction,
  {adb51232-312e-4833-b7ee-3476aabb33d0}, !- Handle
  ASHRAE 189.1-2009 ExtRoof IEAD ClimateZone 1, !- Name
  ,                                       !- Surface Rendering Name
  {1658dbe6-1377-4042-978f-fe5cabbe3e52}, !- Layer 1
  {0b37136b-b408-4b1f-8177-3d94d5f55fc7}, !- Layer 2
  {de7a6791-306c-41e4-a9b1-94286556dabb}; !- Layer 3

OS:StandardsInformation:Construction,
  {4d63c8a6-c3df-4278-b9b4-082a859200b6}, !- Handle
  {adb51232-312e-4833-b7ee-3476aabb33d0}, !- Construction Name
  ExteriorRoof,                           !- Intended Surface Type
  IEAD;                                   !- Standards Construction Type

OS:Material,
  {1658dbe6-1377-4042-978f-fe5cabbe3e52}, !- Handle
  Roof Membrane,                          !- Name
  VeryRough,                              !- Roughness
  0.0095,                                 !- Thickness {m}
  0.16,                                   !- Conductivity {W/m-K}
  1121.29,                                !- Density {kg/m3}
  1460,                                   !- Specific Heat {J/kg-K}
  0.9,                                    !- Thermal Absorptance
  0.7,                                    !- Solar Absorptance
  0.7;                                    !- Visible Absorptance

OS:Material,
  {0b37136b-b408-4b1f-8177-3d94d5f55fc7}, !- Handle
  Roof Insulation [18],                   !- Name
  MediumRough,                            !- Roughness
  0.1693,                                 !- Thickness {m}
  0.049,                                  !- Conductivity {W/m-K}
  265,                                    !- Density {kg/m3}
  836.800000000001,                       !- Specific Heat {J/kg-K}
  0.9,                                    !- Thermal Absorptance
  0.7,                                    !- Solar Absorptance
  0.7;                                    !- Visible Absorptance

OS:Material,
  {de7a6791-306c-41e4-a9b1-94286556dabb}, !- Handle
  Metal Decking,                          !- Name
  MediumSmooth,                           !- Roughness
  0.0015,                                 !- Thickness {m}
  45.006,                                 !- Conductivity {W/m-K}
  7680,                                   !- Density {kg/m3}
  418.4,                                  !- Specific Heat {J/kg-K}
  0.9,                                    !- Thermal Absorptance
  0.6,                                    !- Solar Absorptance
  0.6;                                    !- Visible Absorptance

OS:Construction,
  {6bc20fdd-bc28-4607-9162-011b9334ecc7}, !- Handle
  ASHRAE 189.1-2009 ExtRoof IEAD ClimateZone 2-5, !- Name
  ,                                       !- Surface Rendering Name
  {1658dbe6-1377-4042-978f-fe5cabbe3e52}, !- Layer 1
  {1e17da0b-5d82-4a3e-80c6-af67e47a8bb3}, !- Layer 2
  {de7a6791-306c-41e4-a9b1-94286556dabb}; !- Layer 3

OS:StandardsInformation:Construction,
  {20c1727e-f4ba-4432-a464-c383750378f2}, !- Handle
  {6bc20fdd-bc28-4607-9162-011b9334ecc7}, !- Construction Name
  ExteriorRoof,                           !- Intended Surface Type
  IEAD;                                   !- Standards Construction Type

OS:Material,
  {1e17da0b-5d82-4a3e-80c6-af67e47a8bb3}, !- Handle
  Roof Insulation [21],                   !- Name
  MediumRough,                            !- Roughness
  0.2105,                                 !- Thickness {m}
  0.049,                                  !- Conductivity {W/m-K}
  265,                                    !- Density {kg/m3}
  836.800000000001,                       !- Specific Heat {J/kg-K}
  0.9,                                    !- Thermal Absorptance
  0.7,                                    !- Solar Absorptance
  0.7;                                    !- Visible Absorptance

OS:Construction,
  {da78c9d6-5906-42bc-987e-7ef215c204a1}, !- Handle
  ASHRAE 189.1-2009 ExtRoof IEAD ClimateZone 6, !- Name
  ,                                       !- Surface Rendering Name
  {1658dbe6-1377-4042-978f-fe5cabbe3e52}, !- Layer 1
  {34e1c2cc-c3fb-4d20-95a1-0954fdba74e5}, !- Layer 2
  {de7a6791-306c-41e4-a9b1-94286556dabb}; !- Layer 3

OS:StandardsInformation:Construction,
  {94cba58b-7233-468e-b694-47cdd79e30cd}, !- Handle
  {da78c9d6-5906-42bc-987e-7ef215c204a1}, !- Construction Name
  ExteriorRoof,                           !- Intended Surface Type
  IEAD;                                   !- Standards Construction Type

OS:Material,
  {34e1c2cc-c3fb-4d20-95a1-0954fdba74e5}, !- Handle
  Roof Insulation [24],                   !- Name
  MediumRough,                            !- Roughness
  0.260100000000001,                      !- Thickness {m}
  0.049,                                  !- Conductivity {W/m-K}
  265,                                    !- Density {kg/m3}
  836.800000000001,                       !- Specific Heat {J/kg-K}
  0.9,                                    !- Thermal Absorptance
  0.7,                                    !- Solar Absorptance
  0.7;                                    !- Visible Absorptance

OS:Construction,
  {05e27738-b506-4a7b-96a1-5f088bba7865}, !- Handle
  ASHRAE 189.1-2009 ExtRoof IEAD ClimateZone 7-8, !- Name
  ,                                       !- Surface Rendering Name
  {1658dbe6-1377-4042-978f-fe5cabbe3e52}, !- Layer 1
  {200b09c1-7aa1-457e-ac01-84360e3f4836}, !- Layer 2
  {de7a6791-306c-41e4-a9b1-94286556dabb}; !- Layer 3

OS:StandardsInformation:Construction,
  {baf83c4a-274f-41d8-8ee6-3ab80db7c391}, !- Handle
  {05e27738-b506-4a7b-96a1-5f088bba7865}, !- Construction Name
  ExteriorRoof,                           !- Intended Surface Type
  IEAD;                                   !- Standards Construction Type

OS:Material,
  {200b09c1-7aa1-457e-ac01-84360e3f4836}, !- Handle
  Roof Insulation [26],                   !- Name
  MediumRough,                            !- Roughness
  0.2941,                                 !- Thickness {m}
  0.049,                                  !- Conductivity {W/m-K}
  265,                                    !- Density {kg/m3}
  836.800000000001,                       !- Specific Heat {J/kg-K}
  0.9,                                    !- Thermal Absorptance
  0.7,                                    !- Solar Absorptance
  0.7;                                    !- Visible Absorptance

OS:Construction,
  {26aad695-0b57-4c14-aa63-de5188c4602c}, !- Handle
  ASHRAE 189.1-2009 ExtRoof Metal ClimateZone 1, !- Name
  ,                                       !- Surface Rendering Name
  {e88d64d9-f742-464a-acbf-3c8c6c337c45}, !- Layer 1
  {f1eeafff-5061-4295-93cc-1f86896e9d64}, !- Layer 2
  {de7a6791-306c-41e4-a9b1-94286556dabb}; !- Layer 3

OS:StandardsInformation:Construction,
  {44980da1-a157-4522-a315-3e48aa8afb23}, !- Handle
  {26aad695-0b57-4c14-aa63-de5188c4602c}, !- Construction Name
  ExteriorRoof,                           !- Intended Surface Type
  Metal;                                  !- Standards Construction Type

OS:Material,
  {e88d64d9-f742-464a-acbf-3c8c6c337c45}, !- Handle
  Metal Roofing,                          !- Name
  MediumSmooth,                           !- Roughness
  0.0015,                                 !- Thickness {m}
  45.006,                                 !- Conductivity {W/m-K}
  7680,                                   !- Density {kg/m3}
  418.4,                                  !- Specific Heat {J/kg-K}
  0.9,                                    !- Thermal Absorptance
  0.6,                                    !- Solar Absorptance
  0.6;                                    !- Visible Absorptance

OS:Material,
  {f1eeafff-5061-4295-93cc-1f86896e9d64}, !- Handle
  Roof Insulation [19],                   !- Name
  MediumRough,                            !- Roughness
  0.1868,                                 !- Thickness {m}
  0.049,                                  !- Conductivity {W/m-K}
  265,                                    !- Density {kg/m3}
  836.800000000001,                       !- Specific Heat {J/kg-K}
  0.9,                                    !- Thermal Absorptance
  0.7,                                    !- Solar Absorptance
  0.7;                                    !- Visible Absorptance

OS:Construction,
  {22bbc058-65da-40fb-89d7-7b85ed7068b7}, !- Handle
  ASHRAE 189.1-2009 ExtRoof Metal ClimateZone 2-5, !- Name
  ,                                       !- Surface Rendering Name
  {e88d64d9-f742-464a-acbf-3c8c6c337c45}, !- Layer 1
  {732f44b7-a3e7-4c24-b980-63feb8f362f4}, !- Layer 2
  {de7a6791-306c-41e4-a9b1-94286556dabb}; !- Layer 3

OS:StandardsInformation:Construction,
  {ff128609-d63f-4d9c-aa37-1855c7ed0573}, !- Handle
  {22bbc058-65da-40fb-89d7-7b85ed7068b7}, !- Construction Name
  ExteriorRoof,                           !- Intended Surface Type
  Metal;                                  !- Standards Construction Type

OS:Material,
  {732f44b7-a3e7-4c24-b980-63feb8f362f4}, !- Handle
  Roof Insulation [22],                   !- Name
  MediumRough,                            !- Roughness
  0.2358,                                 !- Thickness {m}
  0.049,                                  !- Conductivity {W/m-K}
  265,                                    !- Density {kg/m3}
  836.800000000001,                       !- Specific Heat {J/kg-K}
  0.9,                                    !- Thermal Absorptance
  0.7,                                    !- Solar Absorptance
  0.7;                                    !- Visible Absorptance

OS:Construction,
  {46d5b05f-5bba-43e0-8bcf-0478c041a308}, !- Handle
  ASHRAE 189.1-2009 ExtRoof Metal ClimateZone 6, !- Name
  ,                                       !- Surface Rendering Name
  {e88d64d9-f742-464a-acbf-3c8c6c337c45}, !- Layer 1
  {e118b209-0feb-4cd0-b4a8-78a51fd22dd4}, !- Layer 2
  {de7a6791-306c-41e4-a9b1-94286556dabb}; !- Layer 3

OS:StandardsInformation:Construction,
  {b847bf3f-3078-4d6b-bec3-f13087b11254}, !- Handle
  {46d5b05f-5bba-43e0-8bcf-0478c041a308}, !- Construction Name
  ExteriorRoof,                           !- Intended Surface Type
  Metal;                                  !- Standards Construction Type

OS:Material,
  {e118b209-0feb-4cd0-b4a8-78a51fd22dd4}, !- Handle
  Roof Insulation [25],                   !- Name
  MediumRough,                            !- Roughness
  0.263,                                  !- Thickness {m}
  0.049,                                  !- Conductivity {W/m-K}
  265,                                    !- Density {kg/m3}
  836.800000000001,                       !- Specific Heat {J/kg-K}
  0.9,                                    !- Thermal Absorptance
  0.7,                                    !- Solar Absorptance
  0.7;                                    !- Visible Absorptance

OS:Construction,
  {b596e1f8-452c-446c-aa1d-645871b8bd0a}, !- Handle
  ASHRAE 189.1-2009 ExtRoof Metal ClimateZone 7-8, !- Name
  ,                                       !- Surface Rendering Name
  {e88d64d9-f742-464a-acbf-3c8c6c337c45}, !- Layer 1
  {2ced4bd8-3da8-4b48-9e8e-57c094586683}, !- Layer 2
  {de7a6791-306c-41e4-a9b1-94286556dabb}; !- Layer 3

OS:StandardsInformation:Construction,
  {d1a9089f-6562-42b4-ba79-c4d44bb6a031}, !- Handle
  {b596e1f8-452c-446c-aa1d-645871b8bd0a}, !- Construction Name
  ExteriorRoof,                           !- Intended Surface Type
  Metal;                                  !- Standards Construction Type

OS:Material,
  {2ced4bd8-3da8-4b48-9e8e-57c094586683}, !- Handle
  Roof Insulation [27],                   !- Name
  MediumRough,                            !- Roughness
  0.297000000000001,                      !- Thickness {m}
  0.049,                                  !- Conductivity {W/m-K}
  265,                                    !- Density {kg/m3}
  836.800000000001,                       !- Specific Heat {J/kg-K}
  0.9,                                    !- Thermal Absorptance
  0.7,                                    !- Solar Absorptance
  0.7;                                    !- Visible Absorptance

OS:Construction,
  {f6739d60-b43b-421b-8294-1a9c80583aee}, !- Handle
  ASHRAE 189.1-2009 ExtWall Mass ClimateZone 1, !- Name
  ,                                       !- Surface Rendering Name
  {1df3e062-b201-4fd5-84c9-20477dc79213}, !- Layer 1
  {744e807d-94b2-494f-ab71-c45502f1aa48}, !- Layer 2
  {edbe53dd-f186-4d72-8d3c-296b9982cd7c}, !- Layer 3
  {a465bccc-fd58-4261-a118-cd5059913206}; !- Layer 4

OS:StandardsInformation:Construction,
  {26ab1d10-90ec-415e-af75-b4cede17d9c2}, !- Handle
  {f6739d60-b43b-421b-8294-1a9c80583aee}, !- Construction Name
  ExteriorWall,                           !- Intended Surface Type
  Mass;                                   !- Standards Construction Type

OS:Material,
  {1df3e062-b201-4fd5-84c9-20477dc79213}, !- Handle
  1IN Stucco,                             !- Name
  Smooth,                                 !- Roughness
  0.0253,                                 !- Thickness {m}
  0.691799999999999,                      !- Conductivity {W/m-K}
  1858,                                   !- Density {kg/m3}
  836.999999999999,                       !- Specific Heat {J/kg-K}
  0.9,                                    !- Thermal Absorptance
  0.92,                                   !- Solar Absorptance
  0.92;                                   !- Visible Absorptance

OS:Material,
  {744e807d-94b2-494f-ab71-c45502f1aa48}, !- Handle
  8IN Concrete HW,                        !- Name
  MediumRough,                            !- Roughness
  0.2033,                                 !- Thickness {m}
  1.72959999999999,                       !- Conductivity {W/m-K}
  2242.99999999999,                       !- Density {kg/m3}
  836.999999999999,                       !- Specific Heat {J/kg-K}
  0.9,                                    !- Thermal Absorptance
  0.65,                                   !- Solar Absorptance
  0.65;                                   !- Visible Absorptance

OS:Material,
  {edbe53dd-f186-4d72-8d3c-296b9982cd7c}, !- Handle
  Wall Insulation [31],                   !- Name
  MediumRough,                            !- Roughness
  0.0337000000000001,                     !- Thickness {m}
  0.0432,                                 !- Conductivity {W/m-K}
  91,                                     !- Density {kg/m3}
  836.999999999999,                       !- Specific Heat {J/kg-K}
  0.9,                                    !- Thermal Absorptance
  0.5,                                    !- Solar Absorptance
  0.5;                                    !- Visible Absorptance

OS:Construction,
  {30320d04-4774-408b-b2cf-df005f2d858e}, !- Handle
  ASHRAE 189.1-2009 ExtWall Mass ClimateZone 2, !- Name
  ,                                       !- Surface Rendering Name
  {1df3e062-b201-4fd5-84c9-20477dc79213}, !- Layer 1
  {744e807d-94b2-494f-ab71-c45502f1aa48}, !- Layer 2
  {cd657300-6633-449e-8c16-fa13b5627eb6}, !- Layer 3
  {a465bccc-fd58-4261-a118-cd5059913206}; !- Layer 4

OS:StandardsInformation:Construction,
  {c300ffb0-a7f3-404a-8cec-c23ff8456708}, !- Handle
  {30320d04-4774-408b-b2cf-df005f2d858e}, !- Construction Name
  ExteriorWall,                           !- Intended Surface Type
  Mass;                                   !- Standards Construction Type

OS:Material,
  {cd657300-6633-449e-8c16-fa13b5627eb6}, !- Handle
  Wall Insulation [35],                   !- Name
  MediumRough,                            !- Roughness
  0.0452,                                 !- Thickness {m}
  0.0432,                                 !- Conductivity {W/m-K}
  91,                                     !- Density {kg/m3}
  836.999999999999,                       !- Specific Heat {J/kg-K}
  0.9,                                    !- Thermal Absorptance
  0.5,                                    !- Solar Absorptance
  0.5;                                    !- Visible Absorptance

OS:Construction,
  {555ffbd9-f134-40c4-9832-8e77e6178c4a}, !- Handle
  ASHRAE 189.1-2009 ExtWall Mass ClimateZone 3, !- Name
  ,                                       !- Surface Rendering Name
  {1df3e062-b201-4fd5-84c9-20477dc79213}, !- Layer 1
  {744e807d-94b2-494f-ab71-c45502f1aa48}, !- Layer 2
  {25c04862-cd22-443f-9d45-05c9e1fda8ad}, !- Layer 3
  {a465bccc-fd58-4261-a118-cd5059913206}; !- Layer 4

OS:StandardsInformation:Construction,
  {1940741c-ba64-4700-a1b4-b9eb6158abec}, !- Handle
  {555ffbd9-f134-40c4-9832-8e77e6178c4a}, !- Construction Name
  ExteriorWall,                           !- Intended Surface Type
  Mass;                                   !- Standards Construction Type

OS:Material,
  {25c04862-cd22-443f-9d45-05c9e1fda8ad}, !- Handle
  Wall Insulation [36],                   !- Name
  MediumRough,                            !- Roughness
  0.0565999999999999,                     !- Thickness {m}
  0.0432,                                 !- Conductivity {W/m-K}
  91,                                     !- Density {kg/m3}
  836.999999999999,                       !- Specific Heat {J/kg-K}
  0.9,                                    !- Thermal Absorptance
  0.5,                                    !- Solar Absorptance
  0.5;                                    !- Visible Absorptance

OS:Construction,
  {869d916d-61fa-4ce0-8545-16dfc05328e7}, !- Handle
  ASHRAE 189.1-2009 ExtWall Mass ClimateZone 4, !- Name
  ,                                       !- Surface Rendering Name
  {1df3e062-b201-4fd5-84c9-20477dc79213}, !- Layer 1
  {744e807d-94b2-494f-ab71-c45502f1aa48}, !- Layer 2
  {6b55a01e-020a-45ec-b15c-e580ac3563ba}, !- Layer 3
  {a465bccc-fd58-4261-a118-cd5059913206}; !- Layer 4

OS:StandardsInformation:Construction,
  {e026a9fd-1305-4478-b72e-483d9c91e96c}, !- Handle
  {869d916d-61fa-4ce0-8545-16dfc05328e7}, !- Construction Name
  ExteriorWall,                           !- Intended Surface Type
  Mass;                                   !- Standards Construction Type

OS:Material,
  {6b55a01e-020a-45ec-b15c-e580ac3563ba}, !- Handle
  Wall Insulation [37],                   !- Name
  MediumRough,                            !- Roughness
  0.0680999999999999,                     !- Thickness {m}
  0.0432,                                 !- Conductivity {W/m-K}
  91,                                     !- Density {kg/m3}
  836.999999999999,                       !- Specific Heat {J/kg-K}
  0.9,                                    !- Thermal Absorptance
  0.5,                                    !- Solar Absorptance
  0.5;                                    !- Visible Absorptance

OS:Construction,
  {cd4e5823-f70e-42c9-bd28-ecdb955a929c}, !- Handle
  ASHRAE 189.1-2009 ExtWall Mass ClimateZone 5, !- Name
  ,                                       !- Surface Rendering Name
  {1df3e062-b201-4fd5-84c9-20477dc79213}, !- Layer 1
  {744e807d-94b2-494f-ab71-c45502f1aa48}, !- Layer 2
  {55b86475-3ede-49a3-9233-9e5049d3dabd}, !- Layer 3
  {a465bccc-fd58-4261-a118-cd5059913206}; !- Layer 4

OS:StandardsInformation:Construction,
  {d9663d4d-faca-4b0f-894c-99978f167b69}, !- Handle
  {cd4e5823-f70e-42c9-bd28-ecdb955a929c}, !- Construction Name
  ExteriorWall,                           !- Intended Surface Type
  Mass;                                   !- Standards Construction Type

OS:Material,
  {55b86475-3ede-49a3-9233-9e5049d3dabd}, !- Handle
  Wall Insulation [40],                   !- Name
  MediumRough,                            !- Roughness
  0.0793999999999999,                     !- Thickness {m}
  0.0432,                                 !- Conductivity {W/m-K}
  91,                                     !- Density {kg/m3}
  836.999999999999,                       !- Specific Heat {J/kg-K}
  0.9,                                    !- Thermal Absorptance
  0.5,                                    !- Solar Absorptance
  0.5;                                    !- Visible Absorptance

OS:Construction,
  {b5f60410-4a19-4097-b057-38434c55b19a}, !- Handle
  ASHRAE 189.1-2009 ExtWall Mass ClimateZone 6, !- Name
  ,                                       !- Surface Rendering Name
  {1df3e062-b201-4fd5-84c9-20477dc79213}, !- Layer 1
  {744e807d-94b2-494f-ab71-c45502f1aa48}, !- Layer 2
  {066b5e52-8422-492a-8042-993384fecc8b}, !- Layer 3
  {a465bccc-fd58-4261-a118-cd5059913206}; !- Layer 4

OS:StandardsInformation:Construction,
  {21c400f9-ca69-42da-bc6d-019ebb8c98d3}, !- Handle
  {b5f60410-4a19-4097-b057-38434c55b19a}, !- Construction Name
  ExteriorWall,                           !- Intended Surface Type
  Mass;                                   !- Standards Construction Type

OS:Material,
  {066b5e52-8422-492a-8042-993384fecc8b}, !- Handle
  Wall Insulation [42],                   !- Name
  MediumRough,                            !- Roughness
  0.0913999999999999,                     !- Thickness {m}
  0.0432,                                 !- Conductivity {W/m-K}
  91,                                     !- Density {kg/m3}
  836.999999999999,                       !- Specific Heat {J/kg-K}
  0.9,                                    !- Thermal Absorptance
  0.5,                                    !- Solar Absorptance
  0.5;                                    !- Visible Absorptance

OS:Construction,
  {eeb7bfa5-7def-4433-b465-82d6ef776f9b}, !- Handle
  ASHRAE 189.1-2009 ExtWall Mass ClimateZone 7-8, !- Name
  ,                                       !- Surface Rendering Name
  {1df3e062-b201-4fd5-84c9-20477dc79213}, !- Layer 1
  {744e807d-94b2-494f-ab71-c45502f1aa48}, !- Layer 2
  {a4ec1821-acdd-44ac-be06-13a71d92cae5}, !- Layer 3
  {a465bccc-fd58-4261-a118-cd5059913206}; !- Layer 4

OS:StandardsInformation:Construction,
  {07fdaa95-5e1a-4602-9276-14a5cbbe88eb}, !- Handle
  {eeb7bfa5-7def-4433-b465-82d6ef776f9b}, !- Construction Name
  ExteriorWall,                           !- Intended Surface Type
  Mass;                                   !- Standards Construction Type

OS:Material,
  {a4ec1821-acdd-44ac-be06-13a71d92cae5}, !- Handle
  Wall Insulation [44],                   !- Name
  MediumRough,                            !- Roughness
  0.1104,                                 !- Thickness {m}
  0.0432,                                 !- Conductivity {W/m-K}
  91,                                     !- Density {kg/m3}
  836.999999999999,                       !- Specific Heat {J/kg-K}
  0.9,                                    !- Thermal Absorptance
  0.5,                                    !- Solar Absorptance
  0.5;                                    !- Visible Absorptance

OS:Construction,
  {16fc282a-8a09-49ac-9267-5797621e11db}, !- Handle
  ASHRAE 189.1-2009 ExtWall Mass ClimateZone alt-res 1, !- Name
  ,                                       !- Surface Rendering Name
  {1df3e062-b201-4fd5-84c9-20477dc79213}, !- Layer 1
  {744e807d-94b2-494f-ab71-c45502f1aa48}, !- Layer 2
  {cd657300-6633-449e-8c16-fa13b5627eb6}, !- Layer 3
  {a465bccc-fd58-4261-a118-cd5059913206}; !- Layer 4

OS:StandardsInformation:Construction,
  {232fc9dc-e22c-413f-8a64-0836c5e116c7}, !- Handle
  {16fc282a-8a09-49ac-9267-5797621e11db}, !- Construction Name
  ExteriorWall,                           !- Intended Surface Type
  Mass;                                   !- Standards Construction Type

OS:Construction,
  {eb5cb335-05c2-47c0-ad4b-0b46217ef45c}, !- Handle
  ASHRAE 189.1-2009 ExtWall Mass ClimateZone alt-res 2, !- Name
  ,                                       !- Surface Rendering Name
  {1df3e062-b201-4fd5-84c9-20477dc79213}, !- Layer 1
  {744e807d-94b2-494f-ab71-c45502f1aa48}, !- Layer 2
  {25c04862-cd22-443f-9d45-05c9e1fda8ad}, !- Layer 3
  {a465bccc-fd58-4261-a118-cd5059913206}; !- Layer 4

OS:StandardsInformation:Construction,
  {a7428600-ec77-4e71-b0cf-4448ce2a3419}, !- Handle
  {eb5cb335-05c2-47c0-ad4b-0b46217ef45c}, !- Construction Name
  ExteriorWall,                           !- Intended Surface Type
  Mass;                                   !- Standards Construction Type

OS:Construction,
  {39fb2f07-ea11-4fc8-acb6-e30d400ec012}, !- Handle
  ASHRAE 189.1-2009 ExtWall Mass ClimateZone alt-res 3, !- Name
  ,                                       !- Surface Rendering Name
  {1df3e062-b201-4fd5-84c9-20477dc79213}, !- Layer 1
  {744e807d-94b2-494f-ab71-c45502f1aa48}, !- Layer 2
  {6b55a01e-020a-45ec-b15c-e580ac3563ba}, !- Layer 3
  {a465bccc-fd58-4261-a118-cd5059913206}; !- Layer 4

OS:StandardsInformation:Construction,
  {ab288b92-dd92-42ab-a71f-058036f639cb}, !- Handle
  {39fb2f07-ea11-4fc8-acb6-e30d400ec012}, !- Construction Name
  ExteriorWall,                           !- Intended Surface Type
  Mass;                                   !- Standards Construction Type

OS:Construction,
  {390c23de-a0b2-4c60-b940-dbacf646c9b1}, !- Handle
  ASHRAE 189.1-2009 ExtWall Mass ClimateZone alt-res 4, !- Name
  ,                                       !- Surface Rendering Name
  {1df3e062-b201-4fd5-84c9-20477dc79213}, !- Layer 1
  {744e807d-94b2-494f-ab71-c45502f1aa48}, !- Layer 2
  {55b86475-3ede-49a3-9233-9e5049d3dabd}, !- Layer 3
  {a465bccc-fd58-4261-a118-cd5059913206}; !- Layer 4

OS:StandardsInformation:Construction,
  {d00dbddb-5d79-42c9-9670-b4d2f64acea0}, !- Handle
  {390c23de-a0b2-4c60-b940-dbacf646c9b1}, !- Construction Name
  ExteriorWall,                           !- Intended Surface Type
  Mass;                                   !- Standards Construction Type

OS:Construction,
  {d4120278-9504-4fac-aabc-7c6785077732}, !- Handle
  ASHRAE 189.1-2009 ExtWall Mass ClimateZone alt-res 5, !- Name
  ,                                       !- Surface Rendering Name
  {1df3e062-b201-4fd5-84c9-20477dc79213}, !- Layer 1
  {744e807d-94b2-494f-ab71-c45502f1aa48}, !- Layer 2
  {066b5e52-8422-492a-8042-993384fecc8b}, !- Layer 3
  {a465bccc-fd58-4261-a118-cd5059913206}; !- Layer 4

OS:StandardsInformation:Construction,
  {08ab9e9f-63d9-496a-a090-e5388267e844}, !- Handle
  {d4120278-9504-4fac-aabc-7c6785077732}, !- Construction Name
  ExteriorWall,                           !- Intended Surface Type
  Mass;                                   !- Standards Construction Type

OS:Construction,
  {882d2381-a475-4fcc-a99f-bb45b3175352}, !- Handle
  ASHRAE 189.1-2009 ExtWall Mass ClimateZone alt-res 6, !- Name
  ,                                       !- Surface Rendering Name
  {1df3e062-b201-4fd5-84c9-20477dc79213}, !- Layer 1
  {744e807d-94b2-494f-ab71-c45502f1aa48}, !- Layer 2
  {a4ec1821-acdd-44ac-be06-13a71d92cae5}, !- Layer 3
  {a465bccc-fd58-4261-a118-cd5059913206}; !- Layer 4

OS:StandardsInformation:Construction,
  {d0dac874-fe21-4a85-8df0-b632fd2a33e8}, !- Handle
  {882d2381-a475-4fcc-a99f-bb45b3175352}, !- Construction Name
  ExteriorWall,                           !- Intended Surface Type
  Mass;                                   !- Standards Construction Type

OS:Construction,
  {5b336cc6-8601-4e0f-9998-3281f212b9cd}, !- Handle
  ASHRAE 189.1-2009 ExtWall Mass ClimateZone alt-res 7, !- Name
  ,                                       !- Surface Rendering Name
  {1df3e062-b201-4fd5-84c9-20477dc79213}, !- Layer 1
  {744e807d-94b2-494f-ab71-c45502f1aa48}, !- Layer 2
  {a4ec1821-acdd-44ac-be06-13a71d92cae5}, !- Layer 3
  {a465bccc-fd58-4261-a118-cd5059913206}; !- Layer 4

OS:StandardsInformation:Construction,
  {f859d8ad-b85d-49a5-9f44-eea18f305f8b}, !- Handle
  {5b336cc6-8601-4e0f-9998-3281f212b9cd}, !- Construction Name
  ExteriorWall,                           !- Intended Surface Type