
OS:Version,
  {6385b936-8c52-4ebc-8198-281a13ee5559}, !- Handle
  1.3.3;                                  !- Version Identifier

OS:Construction,
  {42cff4ef-0d29-461a-88e4-9c4bf338323a}, !- Handle
  ASHRAE 189.1-2009 AtticFloor ClimateZone 1-8, !- Name
  ,                                       !- Surface Rendering Name
  {e238a2c4-d2da-4b54-b67c-cc6509a5dde3}, !- Layer 1
  {d54dec98-3a69-4d74-89e7-bb5a7b060790}, !- Layer 2
  {e238a2c4-d2da-4b54-b67c-cc6509a5dde3}; !- Layer 3

OS:StandardsInformation:Construction,
  {433725de-7b8b-45eb-bcbc-5e7b0faf01fc}, !- Handle
  {42cff4ef-0d29-461a-88e4-9c4bf338323a}, !- Construction Name
  AtticFloor,                             !- Intended Surface Type
  WoodFramed;                             !- Standards Construction Type

OS:Material,
  {e238a2c4-d2da-4b54-b67c-cc6509a5dde3}, !- Handle
  1/2IN Gypsum,                           !- Name
  Smooth,                                 !- Roughness
  0.0127,                                 !- Thickness {m}
  0.16,                                   !- Conductivity {W/m-K}
  784.9,                                  !- Density {kg/m3}
  830.000000000001,                       !- Specific Heat {J/kg-K}
  0.9,                                    !- Thermal Absorptance
  0.92,                                   !- Solar Absorptance
  0.92;                                   !- Visible Absorptance

OS:Material,
  {d54dec98-3a69-4d74-89e7-bb5a7b060790}, !- Handle
  AtticFloor Insulation,                  !- Name
  MediumRough,                            !- Roughness
  0.2379,                                 !- Thickness {m}
  0.049,                                  !- Conductivity {W/m-K}
  265,                                    !- Density {kg/m3}
  836.800000000001,                       !- Specific Heat {J/kg-K}
  0.9,                                    !- Thermal Absorptance
  0.7,                                    !- Solar Absorptance
  0.7;                                    !- Visible Absorptance

OS:Construction,
  {db55ba71-4d1c-4373-a1e4-bf47831ca339}, !- Handle
  ASHRAE 189.1-2009 ExtRoof IEAD ClimateZone 1, !- Name
  ,                                       !- Surface Rendering Name
  {b6e8cde0-85f7-4481-ab00-1b829dfe2bfe}, !- Layer 1
  {f3c50e49-29a4-49b8-a716-7979de171c59}, !- Layer 2
  {c15d5c25-4260-4575-a27c-35c9334e6872}; !- Layer 3

OS:StandardsInformation:Construction,
  {25b5cbe8-d631-46f3-92a8-1ccc5389a24c}, !- Handle
  {db55ba71-4d1c-4373-a1e4-bf47831ca339}, !- Construction Name
  ExteriorRoof,                           !- Intended Surface Type
  IEAD;                                   !- Standards Construction Type

OS:Material,
  {b6e8cde0-85f7-4481-ab00-1b829dfe2bfe}, !- Handle
  Roof Membrane,                          !- Name
  VeryRough,                              !- Roughness
  0.0095,                                 !- Thickness {m}
  0.16,                                   !- Conductivity {W/m-K}
  1121.29,                                !- Density {kg/m3}
  1460,                                   !- Specific Heat {J/kg-K}
  0.9,                                    !- Thermal Absorptance
  0.7,                                    !- Solar Absorptance
  0.7;                                    !- Visible Absorptance

OS:Material,
  {f3c50e49-29a4-49b8-a716-7979de171c59}, !- Handle
  Roof Insulation [18],                   !- Name
  MediumRough,                            !- Roughness
  0.1693,                                 !- Thickness {m}
  0.049,                                  !- Conductivity {W/m-K}
  265,                                    !- Density {kg/m3}
  836.800000000001,                       !- Specific Heat {J/kg-K}
  0.9,                                    !- Thermal Absorptance
  0.7,                                    !- Solar Absorptance
  0.7;                                    !- Visible Absorptance

OS:Material,
  {c15d5c25-4260-4575-a27c-35c9334e6872}, !- Handle
  Metal Decking,                          !- Name
  MediumSmooth,                           !- Roughness
  0.0015,                                 !- Thickness {m}
  45.006,                                 !- Conductivity {W/m-K}
  7680,                                   !- Density {kg/m3}
  418.4,                                  !- Specific Heat {J/kg-K}
  0.9,                                    !- Thermal Absorptance
  0.7,                                    !- Solar Absorptance
  0.3;                                    !- Visible Absorptance

OS:Construction,
  {0ea195f8-3820-4dd9-8408-fa52b2d6be79}, !- Handle
  ASHRAE 189.1-2009 ExtRoof IEAD ClimateZone 2-5, !- Name
  ,                                       !- Surface Rendering Name
  {b6e8cde0-85f7-4481-ab00-1b829dfe2bfe}, !- Layer 1
  {46727532-9f88-4a85-899f-dc8ce5d46dfc}, !- Layer 2
  {c15d5c25-4260-4575-a27c-35c9334e6872}; !- Layer 3

OS:StandardsInformation:Construction,
  {809e3da3-9db4-4593-802c-e922555f5336}, !- Handle
  {0ea195f8-3820-4dd9-8408-fa52b2d6be79}, !- Construction Name
  ExteriorRoof,                           !- Intended Surface Type
  IEAD;                                   !- Standards Construction Type

OS:Material,
  {46727532-9f88-4a85-899f-dc8ce5d46dfc}, !- Handle
  Roof Insulation [21],                   !- Name
  MediumRough,                            !- Roughness
  0.2105,                                 !- Thickness {m}
  0.049,                                  !- Conductivity {W/m-K}
  265,                                    !- Density {kg/m3}
  836.800000000001,                       !- Specific Heat {J/kg-K}
  0.9,                                    !- Thermal Absorptance
  0.7,                                    !- Solar Absorptance
  0.7;                                    !- Visible Absorptance

OS:Construction,
  {607902d6-a1a7-4c4a-8f11-33e3500253ec}, !- Handle
  ASHRAE 189.1-2009 ExtRoof IEAD ClimateZone 6, !- Name
  ,                                       !- Surface Rendering Name
  {b6e8cde0-85f7-4481-ab00-1b829dfe2bfe}, !- Layer 1
  {765040c8-143d-43db-a152-43ee5214f6da}, !- Layer 2
  {c15d5c25-4260-4575-a27c-35c9334e6872}; !- Layer 3

OS:StandardsInformation:Construction,
  {6a9d4b0d-8dfe-44b8-bb7c-92f8d2cb3701}, !- Handle
  {607902d6-a1a7-4c4a-8f11-33e3500253ec}, !- Construction Name
  ExteriorRoof,                           !- Intended Surface Type
  IEAD;                                   !- Standards Construction Type

OS:Material,
  {765040c8-143d-43db-a152-43ee5214f6da}, !- Handle
  Roof Insulation [24],                   !- Name
  MediumRough,                            !- Roughness
  0.260100000000001,                      !- Thickness {m}
  0.049,                                  !- Conductivity {W/m-K}
  265,                                    !- Density {kg/m3}
  836.800000000001,                       !- Specific Heat {J/kg-K}
  0.9,                                    !- Thermal Absorptance
  0.7,                                    !- Solar Absorptance
  0.7;                                    !- Visible Absorptance

OS:Construction,
  {a3b6a2ea-e6e5-4361-9aba-533c331846d9}, !- Handle
  ASHRAE 189.1-2009 ExtRoof IEAD ClimateZone 7-8, !- Name
  ,                                       !- Surface Rendering Name
  {b6e8cde0-85f7-4481-ab00-1b829dfe2bfe}, !- Layer 1
  {9e1dbe6a-07f6-4253-93e1-4d570fbe69cf}, !- Layer 2
  {c15d5c25-4260-4575-a27c-35c9334e6872}; !- Layer 3

OS:StandardsInformation:Construction,
  {cb9fdf69-f4cf-4d09-ac84-4fc57e3d6777}, !- Handle
  {a3b6a2ea-e6e5-4361-9aba-533c331846d9}, !- Construction Name
  ExteriorRoof,                           !- Intended Surface Type
  IEAD;                                   !- Standards Construction Type

OS:Material,
  {9e1dbe6a-07f6-4253-93e1-4d570fbe69cf}, !- Handle
  Roof Insulation [26],                   !- Name
  MediumRough,                            !- Roughness
  0.2941,                                 !- Thickness {m}
  0.049,                                  !- Conductivity {W/m-K}
  265,                                    !- Density {kg/m3}
  836.800000000001,                       !- Specific Heat {J/kg-K}
  0.9,                                    !- Thermal Absorptance
  0.7,                                    !- Solar Absorptance
  0.7;                                    !- Visible Absorptance

OS:Construction,
  {9b697882-5a35-4f5f-bdd7-07ecc786fe9b}, !- Handle
  ASHRAE 189.1-2009 ExtRoof Metal ClimateZone 1, !- Name
  ,                                       !- Surface Rendering Name
  {af854db3-d24a-4850-848b-8cecc3902d56}, !- Layer 1
  {ee929b5b-c987-41f2-852d-7253b1dcdbb8}; !- Layer 2

OS:StandardsInformation:Construction,
  {d5d3d6d5-ecf4-4d85-9f25-c791f9b59cb0}, !- Handle
  {9b697882-5a35-4f5f-bdd7-07ecc786fe9b}, !- Construction Name
  ExteriorRoof,                           !- Intended Surface Type
  Metal;                                  !- Standards Construction Type

OS:Material,
  {af854db3-d24a-4850-848b-8cecc3902d56}, !- Handle
  Metal Roofing,                          !- Name
  MediumSmooth,                           !- Roughness
  0.0015,                                 !- Thickness {m}
  45.006,                                 !- Conductivity {W/m-K}
  7680,                                   !- Density {kg/m3}
  418.4,                                  !- Specific Heat {J/kg-K}
  0.9,                                    !- Thermal Absorptance
  0.3,                                    !- Solar Absorptance
  0.3;                                    !- Visible Absorptance

OS:Material,
  {ee929b5b-c987-41f2-852d-7253b1dcdbb8}, !- Handle
  Roof Insulation [19],                   !- Name
  MediumRough,                            !- Roughness
  0.1868,                                 !- Thickness {m}
  0.049,                                  !- Conductivity {W/m-K}
  265,                                    !- Density {kg/m3}
  836.800000000001,                       !- Specific Heat {J/kg-K}
  0.9,                                    !- Thermal Absorptance
  0.7,                                    !- Solar Absorptance
  0.7;                                    !- Visible Absorptance

OS:Construction,
  {db7039fa-a082-4e39-a7f0-e1460a65072a}, !- Handle
  ASHRAE 189.1-2009 ExtRoof Metal ClimateZone 2-5, !- Name
  ,                                       !- Surface Rendering Name
  {af854db3-d24a-4850-848b-8cecc3902d56}, !- Layer 1
  {5b35e9ed-ad7d-4565-8a26-5ab1d71b0612}; !- Layer 2

OS:StandardsInformation:Construction,
  {7ebc32fa-3c0f-441f-a7ff-2ce1a4148699}, !- Handle
  {db7039fa-a082-4e39-a7f0-e1460a65072a}, !- Construction Name
  ExteriorRoof,                           !- Intended Surface Type
  Metal;                                  !- Standards Construction Type

OS:Material,
  {5b35e9ed-ad7d-4565-8a26-5ab1d71b0612}, !- Handle
  Roof Insulation [22],                   !- Name
  MediumRough,                            !- Roughness
  0.2358,                                 !- Thickness {m}
  0.049,                                  !- Conductivity {W/m-K}
  265,                                    !- Density {kg/m3}
  836.800000000001,                       !- Specific Heat {J/kg-K}
  0.9,                                    !- Thermal Absorptance
  0.7,                                    !- Solar Absorptance
  0.7;                                    !- Visible Absorptance

OS:Construction,
  {753bad6c-65a2-41fe-8b31-0e9ae3d2112f}, !- Handle
  ASHRAE 189.1-2009 ExtRoof Metal ClimateZone 6, !- Name
  ,                                       !- Surface Rendering Name
  {af854db3-d24a-4850-848b-8cecc3902d56}, !- Layer 1
  {5265932a-b96b-436b-bf59-92c67648bece}; !- Layer 2

OS:StandardsInformation:Construction,
  {b4d9e4f7-2170-4c32-9fad-48eb03e60933}, !- Handle
  {753bad6c-65a2-41fe-8b31-0e9ae3d2112f}, !- Construction Name
  ExteriorRoof,                           !- Intended Surface Type
  Metal;                                  !- Standards Construction Type

OS:Material,
  {5265932a-b96b-436b-bf59-92c67648bece}, !- Handle
  Roof Insulation [25],                   !- Name
  MediumRough,                            !- Roughness
  0.263,                                  !- Thickness {m}
  0.049,                                  !- Conductivity {W/m-K}
  265,                                    !- Density {kg/m3}
  836.800000000001,                       !- Specific Heat {J/kg-K}
  0.9,                                    !- Thermal Absorptance
  0.7,                                    !- Solar Absorptance
  0.7;                                    !- Visible Absorptance

OS:Construction,
  {5d267e5c-7b96-44f9-a94c-07d5a1280487}, !- Handle
  ASHRAE 189.1-2009 ExtRoof Metal ClimateZone 7-8, !- Name
  ,                                       !- Surface Rendering Name
  {af854db3-d24a-4850-848b-8cecc3902d56}, !- Layer 1
  {c6aeb9bd-5f01-40f2-b2c6-485243e74999}; !- Layer 2

OS:StandardsInformation:Construction,
  {7de7ce90-3b91-4216-90a0-82535cb9f646}, !- Handle
  {5d267e5c-7b96-44f9-a94c-07d5a1280487}, !- Construction Name
  ExteriorRoof,                           !- Intended Surface Type
  Metal;                                  !- Standards Construction Type

OS:Material,
  {c6aeb9bd-5f01-40f2-b2c6-485243e74999}, !- Handle
  Roof Insulation [27],                   !- Name
  MediumRough,                            !- Roughness
  0.297000000000001,                      !- Thickness {m}
  0.049,                                  !- Conductivity {W/m-K}
  265,                                    !- Density {kg/m3}
  836.800000000001,                       !- Specific Heat {J/kg-K}
  0.9,                                    !- Thermal Absorptance
  0.7,                                    !- Solar Absorptance
  0.7;                                    !- Visible Absorptance

OS:Construction,
  {6466f554-a652-4f38-9896-8e2947c64971}, !- Handle
  ASHRAE 189.1-2009 ExtWall Mass ClimateZone 1, !- Name
  ,                                       !- Surface Rendering Name
  {6d951d3c-3e22-48f7-b4aa-fc83b3cd66b7}, !- Layer 1
  {775bd693-2c13-4d76-8a4c-804ef93b3f82}, !- Layer 2
  {865c2439-5969-4f2c-bb56-914037ed2c23}, !- Layer 3
  {e238a2c4-d2da-4b54-b67c-cc6509a5dde3}; !- Layer 4

OS:StandardsInformation:Construction,
  {d767af94-c54a-476b-b7f5-18fa2ce1b49b}, !- Handle
  {6466f554-a652-4f38-9896-8e2947c64971}, !- Construction Name
  ExteriorWall,                           !- Intended Surface Type
  Mass;                                   !- Standards Construction Type

OS:Material,
  {6d951d3c-3e22-48f7-b4aa-fc83b3cd66b7}, !- Handle
  1IN Stucco,                             !- Name
  Smooth,                                 !- Roughness
  0.0253,                                 !- Thickness {m}
  0.691799999999999,                      !- Conductivity {W/m-K}
  1858,                                   !- Density {kg/m3}
  836.999999999999,                       !- Specific Heat {J/kg-K}
  0.9,                                    !- Thermal Absorptance
  0.92,                                   !- Solar Absorptance
  0.92;                                   !- Visible Absorptance

OS:Material,
  {775bd693-2c13-4d76-8a4c-804ef93b3f82}, !- Handle
  8IN Concrete HW,                        !- Name
  MediumRough,                            !- Roughness
  0.2033,                                 !- Thickness {m}
  1.72959999999999,                       !- Conductivity {W/m-K}
  2242.99999999999,                       !- Density {kg/m3}
  836.999999999999,                       !- Specific Heat {J/kg-K}
  0.9,                                    !- Thermal Absorptance
  0.65,                                   !- Solar Absorptance
  0.65;                                   !- Visible Absorptance

OS:Material,
  {865c2439-5969-4f2c-bb56-914037ed2c23}, !- Handle
  Wall Insulation [31],                   !- Name
  MediumRough,                            !- Roughness
  0.0337000000000001,                     !- Thickness {m}
  0.0432,                                 !- Conductivity {W/m-K}
  91,                                     !- Density {kg/m3}
  836.999999999999,                       !- Specific Heat {J/kg-K}
  0.9,                                    !- Thermal Absorptance
  0.5,                                    !- Solar Absorptance
  0.5;                                    !- Visible Absorptance

OS:Construction,
  {55c4babe-c636-4a1f-9c6a-0ad799abb4a0}, !- Handle
  ASHRAE 189.1-2009 ExtWall Mass ClimateZone 2, !- Name
  ,                                       !- Surface Rendering Name
  {6d951d3c-3e22-48f7-b4aa-fc83b3cd66b7}, !- Layer 1
  {775bd693-2c13-4d76-8a4c-804ef93b3f82}, !- Layer 2
  {fd1d05be-6662-4b61-987c-542efedb82ce}, !- Layer 3
  {e238a2c4-d2da-4b54-b67c-cc6509a5dde3}; !- Layer 4

OS:StandardsInformation:Construction,
  {56811e64-d05e-4f77-8e78-09552d11dca7}, !- Handle
  {55c4babe-c636-4a1f-9c6a-0ad799abb4a0}, !- Construction Name
  ExteriorWall,                           !- Intended Surface Type
  Mass;                                   !- Standards Construction Type

OS:Material,
  {fd1d05be-6662-4b61-987c-542efedb82ce}, !- Handle
  Wall Insulation [35],                   !- Name
  MediumRough,                            !- Roughness
  0.0452,                                 !- Thickness {m}
  0.0432,                                 !- Conductivity {W/m-K}
  91,                                     !- Density {kg/m3}
  836.999999999999,                       !- Specific Heat {J/kg-K}
  0.9,                                    !- Thermal Absorptance
  0.5,                                    !- Solar Absorptance
  0.5;                                    !- Visible Absorptance

OS:Construction,
  {b70f0c9f-8b71-439a-81e0-89e403b6c79c}, !- Handle
  ASHRAE 189.1-2009 ExtWall Mass ClimateZone 3, !- Name
  ,                                       !- Surface Rendering Name
  {6d951d3c-3e22-48f7-b4aa-fc83b3cd66b7}, !- Layer 1
  {775bd693-2c13-4d76-8a4c-804ef93b3f82}, !- Layer 2
  {bdd32089-3f79-44ee-9675-d8a9f84c74c9}, !- Layer 3
  {e238a2c4-d2da-4b54-b67c-cc6509a5dde3}; !- Layer 4

OS:StandardsInformation:Construction,
  {32d8bd42-4a29-40a1-a455-45f42ad14353}, !- Handle
  {b70f0c9f-8b71-439a-81e0-89e403b6c79c}, !- Construction Name
  ExteriorWall,                           !- Intended Surface Type
  Mass;                                   !- Standards Construction Type

OS:Material,
  {bdd32089-3f79-44ee-9675-d8a9f84c74c9}, !- Handle
  Wall Insulation [36],                   !- Name
  MediumRough,                            !- Roughness
  0.0565999999999999,                     !- Thickness {m}
  0.0432,                                 !- Conductivity {W/m-K}
  91,                                     !- Density {kg/m3}
  836.999999999999,                       !- Specific Heat {J/kg-K}
  0.9,                                    !- Thermal Absorptance
  0.5,                                    !- Solar Absorptance
  0.5;                                    !- Visible Absorptance

OS:Construction,
  {05c65294-a83a-44d4-971e-d5535e6b205a}, !- Handle
  ASHRAE 189.1-2009 ExtWall Mass ClimateZone 4, !- Name
  ,                                       !- Surface Rendering Name
  {6d951d3c-3e22-48f7-b4aa-fc83b3cd66b7}, !- Layer 1
  {775bd693-2c13-4d76-8a4c-804ef93b3f82}, !- Layer 2
  {220d5969-0282-4914-ad0e-ebb1a2ecab11}, !- Layer 3
  {e238a2c4-d2da-4b54-b67c-cc6509a5dde3}; !- Layer 4

OS:StandardsInformation:Construction,
  {b1ea973d-ddec-42d2-8064-5a2316967d0f}, !- Handle
  {05c65294-a83a-44d4-971e-d5535e6b205a}, !- Construction Name
  ExteriorWall,                           !- Intended Surface Type
  Mass;                                   !- Standards Construction Type

OS:Material,
  {220d5969-0282-4914-ad0e-ebb1a2ecab11}, !- Handle
  Wall Insulation [37],                   !- Name
  MediumRough,                            !- Roughness
  0.0680999999999999,                     !- Thickness {m}
  0.0432,                                 !- Conductivity {W/m-K}
  91,                                     !- Density {kg/m3}
  836.999999999999,                       !- Specific Heat {J/kg-K}
  0.9,                                    !- Thermal Absorptance
  0.5,                                    !- Solar Absorptance
  0.5;                                    !- Visible Absorptance

OS:Construction,
  {825bfd2c-c58c-4342-985b-fef9e576a6cf}, !- Handle
  ASHRAE 189.1-2009 ExtWall Mass ClimateZone 5, !- Name
  ,                                       !- Surface Rendering Name
  {6d951d3c-3e22-48f7-b4aa-fc83b3cd66b7}, !- Layer 1
  {775bd693-2c13-4d76-8a4c-804ef93b3f82}, !- Layer 2
  {112e355f-e4a5-40bd-b6fa-85be61e200c5}, !- Layer 3
  {e238a2c4-d2da-4b54-b67c-cc6509a5dde3}; !- Layer 4

OS:StandardsInformation:Construction,
  {5d51ce1f-b2da-41a8-9063-2179cb54e651}, !- Handle
  {825bfd2c-c58c-4342-985b-fef9e576a6cf}, !- Construction Name
  ExteriorWall,                           !- Intended Surface Type
  Mass;                                   !- Standards Construction Type

OS:Material,
  {112e355f-e4a5-40bd-b6fa-85be61e200c5}, !- Handle
  Wall Insulation [40],                   !- Name
  MediumRough,                            !- Roughness
  0.0793999999999999,                     !- Thickness {m}
  0.0432,                                 !- Conductivity {W/m-K}
  91,                                     !- Density {kg/m3}
  836.999999999999,                       !- Specific Heat {J/kg-K}
  0.9,                                    !- Thermal Absorptance
  0.5,                                    !- Solar Absorptance
  0.5;                                    !- Visible Absorptance

OS:Construction,
  {4dda1ead-5dcf-4b0f-a0be-24c4539c7788}, !- Handle
  ASHRAE 189.1-2009 ExtWall Mass ClimateZone 6, !- Name
  ,                                       !- Surface Rendering Name
  {6d951d3c-3e22-48f7-b4aa-fc83b3cd66b7}, !- Layer 1
  {775bd693-2c13-4d76-8a4c-804ef93b3f82}, !- Layer 2
  {188ac603-bc26-4eff-9f08-441f9b81c57a}, !- Layer 3
  {e238a2c4-d2da-4b54-b67c-cc6509a5dde3}; !- Layer 4

OS:StandardsInformation:Construction,
  {88aecac7-9586-4de6-9483-754d2a9dc993}, !- Handle
  {4dda1ead-5dcf-4b0f-a0be-24c4539c7788}, !- Construction Name
  ExteriorWall,                           !- Intended Surface Type
  Mass;                                   !- Standards Construction Type

OS:Material,
  {188ac603-bc26-4eff-9f08-441f9b81c57a}, !- Handle
  Wall Insulation [42],                   !- Name
  MediumRough,                            !- Roughness
  0.0913999999999999,                     !- Thickness {m}
  0.0432,                                 !- Conductivity {W/m-K}
  91,                                     !- Density {kg/m3}
  836.999999999999,                       !- Specific Heat {J/kg-K}
  0.9,                                    !- Thermal Absorptance
  0.5,                                    !- Solar Absorptance
  0.5;                                    !- Visible Absorptance

OS:Construction,
  {14c0c67c-13b3-405f-826a-2f8269a5499e}, !- Handle
  ASHRAE 189.1-2009 ExtWall Mass ClimateZone 7-8, !- Name
  ,                                       !- Surface Rendering Name
  {6d951d3c-3e22-48f7-b4aa-fc83b3cd66b7}, !- Layer 1
  {775bd693-2c13-4d76-8a4c-804ef93b3f82}, !- Layer 2
  {ec4fffae-2d56-41fa-8742-16e969cdeee4}, !- Layer 3
  {e238a2c4-d2da-4b54-b67c-cc6509a5dde3}; !- Layer 4

OS:StandardsInformation:Construction,
  {ad9e9481-ec93-4552-9566-046593767441}, !- Handle
  {14c0c67c-13b3-405f-826a-2f8269a5499e}, !- Construction Name
  ExteriorWall,                           !- Intended Surface Type
  Mass;                                   !- Standards Construction Type

OS:Material,
  {ec4fffae-2d56-41fa-8742-16e969cdeee4}, !- Handle
  Wall Insulation [44],                   !- Name
  MediumRough,                            !- Roughness
  0.1104,                                 !- Thickness {m}
  0.0432,                                 !- Conductivity {W/m-K}
  91,                                     !- Density {kg/m3}
  836.999999999999,                       !- Specific Heat {J/kg-K}
  0.9,                                    !- Thermal Absorptance
  0.5,                                    !- Solar Absorptance
  0.5;                                    !- Visible Absorptance

OS:Construction,
  {6651efa2-18ff-4447-b1d9-4128dbdba843}, !- Handle
  ASHRAE 189.1-2009 ExtWall Mass ClimateZone alt-res 1, !- Name
  ,                                       !- Surface Rendering Name
  {6d951d3c-3e22-48f7-b4aa-fc83b3cd66b7}, !- Layer 1
  {775bd693-2c13-4d76-8a4c-804ef93b3f82}, !- Layer 2
  {fd1d05be-6662-4b61-987c-542efedb82ce}, !- Layer 3
  {e238a2c4-d2da-4b54-b67c-cc6509a5dde3}; !- Layer 4

OS:StandardsInformation:Construction,
  {2a35f664-eb5c-428a-b99e-769d856014ba}, !- Handle
  {6651efa2-18ff-4447-b1d9-4128dbdba843}, !- Construction Name
  ExteriorWall,                           !- Intended Surface Type
  Mass;                                   !- Standards Construction Type

OS:Construction,
  {54f5f8c2-f5aa-40c4-a84c-ad751869d95e}, !- Handle
  ASHRAE 189.1-2009 ExtWall Mass ClimateZone alt-res 2, !- Name
  ,                                       !- Surface Rendering Name
  {6d951d3c-3e22-48f7-b4aa-fc83b3cd66b7}, !- Layer 1
  {775bd693-2c13-4d76-8a4c-804ef93b3f82}, !- Layer 2
  {bdd32089-3f79-44ee-9675-d8a9f84c74c9}, !- Layer 3
  {e238a2c4-d2da-4b54-b67c-cc6509a5dde3}; !- Layer 4

OS:StandardsInformation:Construction,
  {24171083-60eb-4b34-8a11-e3d9a5150ca2}, !- Handle
  {54f5f8c2-f5aa-40c4-a84c-ad751869d95e}, !- Construction Name
  ExteriorWall,                           !- Intended Surface Type
  Mass;                                   !- Standards Construction Type

OS:Construction,
  {b5234266-916a-4684-86c4-0d6cd5fd71f2}, !- Handle
  ASHRAE 189.1-2009 ExtWall Mass ClimateZone alt-res 3, !- Name
  ,                                       !- Surface Rendering Name
  {6d951d3c-3e22-48f7-b4aa-fc83b3cd66b7}, !- Layer 1
  {775bd693-2c13-4d76-8a4c-804ef93b3f82}, !- Layer 2
  {220d5969-0282-4914-ad0e-ebb1a2ecab11}, !- Layer 3
  {e238a2c4-d2da-4b54-b67c-cc6509a5dde3}; !- Layer 4

OS:StandardsInformation:Construction,
  {f9ff467c-ec2b-4f30-b98e-90db6ebae594}, !- Handle
  {b5234266-916a-4684-86c4-0d6cd5fd71f2}, !- Construction Name
  ExteriorWall,                           !- Intended Surface Type
  Mass;                                   !- Standards Construction Type

OS:Construction,
  {287b6287-b25d-41b5-9afe-85bdca5d66fd}, !- Handle
  ASHRAE 189.1-2009 ExtWall Mass ClimateZone alt-res 4, !- Name
  ,                                       !- Surface Rendering Name
  {6d951d3c-3e22-48f7-b4aa-fc83b3cd66b7}, !- Layer 1
  {775bd693-2c13-4d76-8a4c-804ef93b3f82}, !- Layer 2
  {112e355f-e4a5-40bd-b6fa-85be61e200c5}, !- Layer 3
  {e238a2c4-d2da-4b54-b67c-cc6509a5dde3}; !- Layer 4

OS:StandardsInformation:Construction,
  {4b709dde-57be-4ad0-953f-bf3402ab8e0d}, !- Handle
  {287b6287-b25d-41b5-9afe-85bdca5d66fd}, !- Construction Name
  ExteriorWall,                           !- Intended Surface Type
  Mass;                                   !- Standards Construction Type

OS:Construction,
  {2abdcd67-0d6a-4f68-a34c-984b8391cc76}, !- Handle
  ASHRAE 189.1-2009 ExtWall Mass ClimateZone alt-res 5, !- Name
  ,                                       !- Surface Rendering Name
  {6d951d3c-3e22-48f7-b4aa-fc83b3cd66b7}, !- Layer 1
  {775bd693-2c13-4d76-8a4c-804ef93b3f82}, !- Layer 2
  {188ac603-bc26-4eff-9f08-441f9b81c57a}, !- Layer 3
  {e238a2c4-d2da-4b54-b67c-cc6509a5dde3}; !- Layer 4

OS:StandardsInformation:Construction,
  {83a96ccb-72ce-4698-9409-d4637463dffc}, !- Handle
  {2abdcd67-0d6a-4f68-a34c-984b8391cc76}, !- Construction Name
  ExteriorWall,                           !- Intended Surface Type
  Mass;                                   !- Standards Construction Type

OS:Construction,
  {f473661c-4d49-445a-9e00-1872e5bb4b18}, !- Handle
  ASHRAE 189.1-2009 ExtWall Mass ClimateZone alt-res 6, !- Name
  ,                                       !- Surface Rendering Name
  {6d951d3c-3e22-48f7-b4aa-fc83b3cd66b7}, !- Layer 1
  {775bd693-2c13-4d76-8a4c-804ef93b3f82}, !- Layer 2
  {ec4fffae-2d56-41fa-8742-16e969cdeee4}, !- Layer 3
  {e238a2c4-d2da-4b54-b67c-cc6509a5dde3}; !- Layer 4

OS:StandardsInformation:Construction,
  {14cd0bef-32ea-43a6-be2f-0de81801cc91}, !- Handle
  {f473661c-4d49-445a-9e00-1872e5bb4b18}, !- Construction Name
  ExteriorWall,                           !- Intended Surface Type
  Mass;                                   !- Standards Construction Type

OS:Construction,
  {bd219912-1862-494f-9d7b-27e9d82058db}, !- Handle
  ASHRAE 189.1-2009 ExtWall Mass ClimateZone alt-res 7, !- Name
  ,                                       !- Surface Rendering Name
  {6d951d3c-3e22-48f7-b4aa-fc83b3cd66b7}, !- Layer 1
  {775bd693-2c13-4d76-8a4c-804ef93b3f82}, !- Layer 2
  {ec4fffae-2d56-41fa-8742-16e969cdeee4}, !- Layer 3
  {e238a2c4-d2da-4b54-b67c-cc6509a5dde3}; !- Layer 4

OS:StandardsInformation:Construction,
  {3e68b45a-d47c-4255-b6e2-16d0f4fd86c8}, !- Handle
  {bd219912-1862-494f-9d7b-27e9d82058db}, !- Construction Name
  ExteriorWall,                           !- Intended Surface Type
  Mass;                                   !- Standards Construction Type

OS:Construction,
  {f63221c9-daf9-43a9-8e9c-e67f84ce4b70}, !- Handle
  ASHRAE 189.1-2009 ExtWall Mass ClimateZone alt-res 8, !- Name