
OS:Version,
  {3f1e1949-d050-459b-9135-a34d7be624ba}, !- Handle
  2.3.0;                                  !- Version Identifier

OS:Construction,
  {3b275d8f-43a9-41bc-b023-a71e31aff26c}, !- Handle
  ASHRAE 189.1-2009 AtticFloor ClimateZone 1-8, !- Name
  ,                                       !- Surface Rendering Name
  {715dfedd-923f-434b-a21b-fce3356a8976}, !- Layer 1
  {deba1498-c7b8-4943-93bd-837de1e9258b}, !- Layer 2
  {715dfedd-923f-434b-a21b-fce3356a8976}; !- Layer 3

OS:StandardsInformation:Construction,
  {cd8684a3-a421-418f-88cc-b3d6e4119b56}, !- Handle
  {3b275d8f-43a9-41bc-b023-a71e31aff26c}, !- Construction Name
  AtticFloor,                             !- Intended Surface Type
  WoodFramed,                             !- Standards Construction Type
  ,                                       !- Perturbable Layer
  ,                                       !- Perturbable Layer Type
  ,                                       !- Other Perturbable Layer Type
  ASHRAE 189.1-2009;                      !- Construction Standard

OS:Material,
  {715dfedd-923f-434b-a21b-fce3356a8976}, !- Handle
  1/2IN Gypsum,                           !- Name
  Smooth,                                 !- Roughness
  0.0127,                                 !- Thickness {m}
  0.16,                                   !- Conductivity {W/m-K}
  784.9,                                  !- Density {kg/m3}
  830.000000000001,                       !- Specific Heat {J/kg-K}
  0.9,                                    !- Thermal Absorptance
  0.4,                                    !- Solar Absorptance
  0.4;                                    !- Visible Absorptance

OS:StandardsInformation:Material,
  {dcd5f25d-66e8-48ff-8130-2566ccc2bad4}, !- Handle
  {715dfedd-923f-434b-a21b-fce3356a8976}; !- Material Name

OS:Material,
  {deba1498-c7b8-4943-93bd-837de1e9258b}, !- Handle
  AtticFloor Insulation,                  !- Name
  MediumRough,                            !- Roughness
  0.2379,                                 !- Thickness {m}
  0.049,                                  !- Conductivity {W/m-K}
  265,                                    !- Density {kg/m3}
  836.800000000001,                       !- Specific Heat {J/kg-K}
  0.9,                                    !- Thermal Absorptance
  0.7,                                    !- Solar Absorptance
  0.7;                                    !- Visible Absorptance

OS:StandardsInformation:Material,
  {05395426-73d7-4d22-8952-3cb7b3a78710}, !- Handle
  {deba1498-c7b8-4943-93bd-837de1e9258b}; !- Material Name

OS:Construction,
  {16830891-9505-45a8-814e-5550fb5656a1}, !- Handle
  ASHRAE 189.1-2009 ExtRoof IEAD ClimateZone 1, !- Name
  ,                                       !- Surface Rendering Name
  {9f89457e-6fb3-467e-828b-29e0f9a0844e}, !- Layer 1
  {dbee4491-c98f-467f-aa96-b2420e8a6efe}, !- Layer 2
  {3c1d021d-582b-404d-91f3-c933a428d6b9}; !- Layer 3

OS:StandardsInformation:Construction,
  {c86b16e8-6ce9-4ce3-af81-d337f83c8b0b}, !- Handle
  {16830891-9505-45a8-814e-5550fb5656a1}, !- Construction Name
  ExteriorRoof,                           !- Intended Surface Type
  IEAD,                                   !- Standards Construction Type
  ,                                       !- Perturbable Layer
  ,                                       !- Perturbable Layer Type
  ,                                       !- Other Perturbable Layer Type
  ASHRAE 189.1-2009;                      !- Construction Standard

OS:Material,
  {9f89457e-6fb3-467e-828b-29e0f9a0844e}, !- Handle
  Roof Membrane,                          !- Name
  VeryRough,                              !- Roughness
  0.0095,                                 !- Thickness {m}
  0.16,                                   !- Conductivity {W/m-K}
  1121.29,                                !- Density {kg/m3}
  1460,                                   !- Specific Heat {J/kg-K}
  0.9,                                    !- Thermal Absorptance
  0.7,                                    !- Solar Absorptance
  0.7;                                    !- Visible Absorptance

OS:StandardsInformation:Material,
  {d5378c32-1e9b-4119-ab0e-504cd0863f31}, !- Handle
  {9f89457e-6fb3-467e-828b-29e0f9a0844e}; !- Material Name

OS:Material,
  {dbee4491-c98f-467f-aa96-b2420e8a6efe}, !- Handle
  Roof Insulation [18],                   !- Name
  MediumRough,                            !- Roughness
  0.1693,                                 !- Thickness {m}
  0.049,                                  !- Conductivity {W/m-K}
  265,                                    !- Density {kg/m3}
  836.800000000001,                       !- Specific Heat {J/kg-K}
  0.9,                                    !- Thermal Absorptance
  0.7,                                    !- Solar Absorptance
  0.7;                                    !- Visible Absorptance

OS:StandardsInformation:Material,
  {6a16af67-3f6d-4a92-9cd7-2bc6402904df}, !- Handle
  {dbee4491-c98f-467f-aa96-b2420e8a6efe}; !- Material Name

OS:Material,
  {3c1d021d-582b-404d-91f3-c933a428d6b9}, !- Handle
  Metal Decking,                          !- Name
  MediumSmooth,                           !- Roughness
  0.0015,                                 !- Thickness {m}
  45.006,                                 !- Conductivity {W/m-K}
  7680,                                   !- Density {kg/m3}
  418.4,                                  !- Specific Heat {J/kg-K}
  0.9,                                    !- Thermal Absorptance
  0.6,                                    !- Solar Absorptance
  0.6;                                    !- Visible Absorptance

OS:StandardsInformation:Material,
  {7b0819e0-8d23-4f55-9e56-eceeccc81269}, !- Handle
  {3c1d021d-582b-404d-91f3-c933a428d6b9}; !- Material Name

OS:Construction,
  {5d0bac9d-89e3-43ac-ad34-7f9b9872bf6a}, !- Handle
  ASHRAE 189.1-2009 ExtRoof IEAD ClimateZone 2-5, !- Name
  ,                                       !- Surface Rendering Name
  {9f89457e-6fb3-467e-828b-29e0f9a0844e}, !- Layer 1
  {43ae6c98-03d9-4060-93f2-e0f88e830349}, !- Layer 2
  {3c1d021d-582b-404d-91f3-c933a428d6b9}; !- Layer 3

OS:StandardsInformation:Construction,
  {69d9d410-d596-4db1-abb5-83a455992848}, !- Handle
  {5d0bac9d-89e3-43ac-ad34-7f9b9872bf6a}, !- Construction Name
  ExteriorRoof,                           !- Intended Surface Type
  IEAD,                                   !- Standards Construction Type
  ,                                       !- Perturbable Layer
  ,                                       !- Perturbable Layer Type
  ,                                       !- Other Perturbable Layer Type
  ASHRAE 189.1-2009;                      !- Construction Standard

OS:Material,
  {43ae6c98-03d9-4060-93f2-e0f88e830349}, !- Handle
  Roof Insulation [21],                   !- Name
  MediumRough,                            !- Roughness
  0.2105,                                 !- Thickness {m}
  0.049,                                  !- Conductivity {W/m-K}
  265,                                    !- Density {kg/m3}
  836.800000000001,                       !- Specific Heat {J/kg-K}
  0.9,                                    !- Thermal Absorptance
  0.7,                                    !- Solar Absorptance
  0.7;                                    !- Visible Absorptance

OS:StandardsInformation:Material,
  {8ebac26b-e727-46a8-934c-333665b15f76}, !- Handle
  {43ae6c98-03d9-4060-93f2-e0f88e830349}; !- Material Name

OS:Construction,
  {a8c83e2b-226a-473f-9ce9-60f8a840a90c}, !- Handle
  ASHRAE 189.1-2009 ExtRoof IEAD ClimateZone 6, !- Name
  ,                                       !- Surface Rendering Name
  {9f89457e-6fb3-467e-828b-29e0f9a0844e}, !- Layer 1
  {77dbe931-c8ac-4cc6-b51b-f0d3bdd45ad8}, !- Layer 2
  {3c1d021d-582b-404d-91f3-c933a428d6b9}; !- Layer 3

OS:StandardsInformation:Construction,
  {bdde54b9-8e68-4b67-97c0-4bef86f34c22}, !- Handle
  {a8c83e2b-226a-473f-9ce9-60f8a840a90c}, !- Construction Name
  ExteriorRoof,                           !- Intended Surface Type
  IEAD,                                   !- Standards Construction Type
  ,                                       !- Perturbable Layer
  ,                                       !- Perturbable Layer Type
  ,                                       !- Other Perturbable Layer Type
  ASHRAE 189.1-2009;                      !- Construction Standard

OS:Material,
  {77dbe931-c8ac-4cc6-b51b-f0d3bdd45ad8}, !- Handle
  Roof Insulation [24],                   !- Name
  MediumRough,                            !- Roughness
  0.260100000000001,                      !- Thickness {m}
  0.049,                                  !- Conductivity {W/m-K}
  265,                                    !- Density {kg/m3}
  836.800000000001,                       !- Specific Heat {J/kg-K}
  0.9,                                    !- Thermal Absorptance
  0.7,                                    !- Solar Absorptance
  0.7;                                    !- Visible Absorptance

OS:StandardsInformation:Material,
  {6d221f34-2195-4efa-97d9-350f89257f9e}, !- Handle
  {77dbe931-c8ac-4cc6-b51b-f0d3bdd45ad8}; !- Material Name

OS:Construction,
  {4ed11644-ac57-492a-8836-5338421b6192}, !- Handle
  ASHRAE 189.1-2009 ExtRoof IEAD ClimateZone 7-8, !- Name
  ,                                       !- Surface Rendering Name
  {9f89457e-6fb3-467e-828b-29e0f9a0844e}, !- Layer 1
  {7f35bad6-a9a1-40a2-a530-025c3bf80e3c}, !- Layer 2
  {3c1d021d-582b-404d-91f3-c933a428d6b9}; !- Layer 3

OS:StandardsInformation:Construction,
  {bdcee7cb-7f58-4a5c-98ef-a17dc012ab0b}, !- Handle
  {4ed11644-ac57-492a-8836-5338421b6192}, !- Construction Name
  ExteriorRoof,                           !- Intended Surface Type
  IEAD,                                   !- Standards Construction Type
  ,                                       !- Perturbable Layer
  ,                                       !- Perturbable Layer Type
  ,                                       !- Other Perturbable Layer Type
  ASHRAE 189.1-2009;                      !- Construction Standard

OS:Material,
  {7f35bad6-a9a1-40a2-a530-025c3bf80e3c}, !- Handle
  Roof Insulation [26],                   !- Name
  MediumRough,                            !- Roughness
  0.2941,                                 !- Thickness {m}
  0.049,                                  !- Conductivity {W/m-K}
  265,                                    !- Density {kg/m3}
  836.800000000001,                       !- Specific Heat {J/kg-K}
  0.9,                                    !- Thermal Absorptance
  0.7,                                    !- Solar Absorptance
  0.7;                                    !- Visible Absorptance

OS:StandardsInformation:Material,
  {a1eeaec4-9225-47fd-919d-79fb98cfe154}, !- Handle
  {7f35bad6-a9a1-40a2-a530-025c3bf80e3c}; !- Material Name

OS:Construction,
  {71a3ce01-92d2-4921-8e79-9ba778aae67d}, !- Handle
  ASHRAE 189.1-2009 ExtRoof Metal ClimateZone 1, !- Name
  ,                                       !- Surface Rendering Name
  {a9d8392e-f05b-4326-9f47-416cf9c26db6}, !- Layer 1
  {c667992b-3775-4af1-a59e-0ea55c6d08f7}, !- Layer 2
  {3c1d021d-582b-404d-91f3-c933a428d6b9}; !- Layer 3

OS:StandardsInformation:Construction,
  {de613817-b411-46ab-975e-fb3b3462a44d}, !- Handle
  {71a3ce01-92d2-4921-8e79-9ba778aae67d}, !- Construction Name
  ExteriorRoof,                           !- Intended Surface Type
  Metal,                                  !- Standards Construction Type
  ,                                       !- Perturbable Layer
  ,                                       !- Perturbable Layer Type
  ,                                       !- Other Perturbable Layer Type
  ASHRAE 189.1-2009;                      !- Construction Standard

OS:Material,
  {a9d8392e-f05b-4326-9f47-416cf9c26db6}, !- Handle
  Metal Roofing,                          !- Name
  MediumSmooth,                           !- Roughness
  0.0015,                                 !- Thickness {m}
  45.006,                                 !- Conductivity {W/m-K}
  7680,                                   !- Density {kg/m3}
  418.4,                                  !- Specific Heat {J/kg-K}
  0.9,                                    !- Thermal Absorptance
  0.6,                                    !- Solar Absorptance
  0.6;                                    !- Visible Absorptance

OS:StandardsInformation:Material,
  {5b75d533-4f15-4dd5-8c94-9460ea9c0326}, !- Handle
  {a9d8392e-f05b-4326-9f47-416cf9c26db6}; !- Material Name

OS:Material,
  {c667992b-3775-4af1-a59e-0ea55c6d08f7}, !- Handle
  Roof Insulation [19],                   !- Name
  MediumRough,                            !- Roughness
  0.1868,                                 !- Thickness {m}
  0.049,                                  !- Conductivity {W/m-K}
  265,                                    !- Density {kg/m3}
  836.800000000001,                       !- Specific Heat {J/kg-K}
  0.9,                                    !- Thermal Absorptance
  0.7,                                    !- Solar Absorptance
  0.7;                                    !- Visible Absorptance

OS:StandardsInformation:Material,
  {0e2a3c8f-566b-4bb2-b18a-21ea32aeb32e}, !- Handle
  {c667992b-3775-4af1-a59e-0ea55c6d08f7}; !- Material Name

OS:Construction,
  {b42b82bf-e4f0-4674-b6bb-4dfcc875af27}, !- Handle
  ASHRAE 189.1-2009 ExtRoof Metal ClimateZone 2-5, !- Name
  ,                                       !- Surface Rendering Name
  {a9d8392e-f05b-4326-9f47-416cf9c26db6}, !- Layer 1
  {02c7970f-cffd-41f4-88ba-aec867767844}, !- Layer 2
  {3c1d021d-582b-404d-91f3-c933a428d6b9}; !- Layer 3

OS:StandardsInformation:Construction,
  {8bc3cbc5-1528-4a61-8a7e-286940f2b73f}, !- Handle
  {b42b82bf-e4f0-4674-b6bb-4dfcc875af27}, !- Construction Name
  ExteriorRoof,                           !- Intended Surface Type
  Metal,                                  !- Standards Construction Type
  ,                                       !- Perturbable Layer
  ,                                       !- Perturbable Layer Type
  ,                                       !- Other Perturbable Layer Type
  ASHRAE 189.1-2009;                      !- Construction Standard

OS:Material,
  {02c7970f-cffd-41f4-88ba-aec867767844}, !- Handle
  Roof Insulation [22],                   !- Name
  MediumRough,                            !- Roughness
  0.2358,                                 !- Thickness {m}
  0.049,                                  !- Conductivity {W/m-K}
  265,                                    !- Density {kg/m3}
  836.800000000001,                       !- Specific Heat {J/kg-K}
  0.9,                                    !- Thermal Absorptance
  0.7,                                    !- Solar Absorptance
  0.7;                                    !- Visible Absorptance

OS:StandardsInformation:Material,
  {ff78260f-c2af-4b3f-a791-b1181c534b59}, !- Handle
  {02c7970f-cffd-41f4-88ba-aec867767844}; !- Material Name

OS:Construction,
  {3aff8cfc-a6a3-4be6-a552-6cc41728f123}, !- Handle
  ASHRAE 189.1-2009 ExtRoof Metal ClimateZone 6, !- Name
  ,                                       !- Surface Rendering Name
  {a9d8392e-f05b-4326-9f47-416cf9c26db6}, !- Layer 1
  {01ff7147-0f4c-48eb-809a-50e31a9b6827}, !- Layer 2
  {3c1d021d-582b-404d-91f3-c933a428d6b9}; !- Layer 3

OS:StandardsInformation:Construction,
  {54de86c7-0b7b-4e67-8c1b-f5e40e8b51f1}, !- Handle
  {3aff8cfc-a6a3-4be6-a552-6cc41728f123}, !- Construction Name
  ExteriorRoof,                           !- Intended Surface Type
  Metal,                                  !- Standards Construction Type
  ,                                       !- Perturbable Layer
  ,                                       !- Perturbable Layer Type
  ,                                       !- Other Perturbable Layer Type
  ASHRAE 189.1-2009;                      !- Construction Standard

OS:Material,
  {01ff7147-0f4c-48eb-809a-50e31a9b6827}, !- Handle
  Roof Insulation [25],                   !- Name
  MediumRough,                            !- Roughness
  0.263,                                  !- Thickness {m}
  0.049,                                  !- Conductivity {W/m-K}
  265,                                    !- Density {kg/m3}
  836.800000000001,                       !- Specific Heat {J/kg-K}
  0.9,                                    !- Thermal Absorptance
  0.7,                                    !- Solar Absorptance
  0.7;                                    !- Visible Absorptance

OS:StandardsInformation:Material,
  {606a0451-33cb-4a64-938a-ac60723466ed}, !- Handle
  {01ff7147-0f4c-48eb-809a-50e31a9b6827}; !- Material Name

OS:Construction,
  {5b7316fc-f83e-4586-8456-b314db60140c}, !- Handle
  ASHRAE 189.1-2009 ExtRoof Metal ClimateZone 7-8, !- Name
  ,                                       !- Surface Rendering Name
  {a9d8392e-f05b-4326-9f47-416cf9c26db6}, !- Layer 1
  {36d31c2a-8277-4a9f-8a0e-d8f42717c9c0}, !- Layer 2
  {3c1d021d-582b-404d-91f3-c933a428d6b9}; !- Layer 3

OS:StandardsInformation:Construction,
  {36d02fbf-8eeb-45c9-874e-0b17359cc3ef}, !- Handle
  {5b7316fc-f83e-4586-8456-b314db60140c}, !- Construction Name
  ExteriorRoof,                           !- Intended Surface Type
  Metal,                                  !- Standards Construction Type
  ,                                       !- Perturbable Layer
  ,                                       !- Perturbable Layer Type
  ,                                       !- Other Perturbable Layer Type
  ASHRAE 189.1-2009;                      !- Construction Standard

OS:Material,
  {36d31c2a-8277-4a9f-8a0e-d8f42717c9c0}, !- Handle
  Roof Insulation [27],                   !- Name
  MediumRough,                            !- Roughness
  0.297000000000001,                      !- Thickness {m}
  0.049,                                  !- Conductivity {W/m-K}
  265,                                    !- Density {kg/m3}
  836.800000000001,                       !- Specific Heat {J/kg-K}
  0.9,                                    !- Thermal Absorptance
  0.7,                                    !- Solar Absorptance
  0.7;                                    !- Visible Absorptance

OS:StandardsInformation:Material,
  {93ccab3f-89ef-43a1-b712-b5d730891ea6}, !- Handle
  {36d31c2a-8277-4a9f-8a0e-d8f42717c9c0}; !- Material Name

OS:Construction,
  {1b11b3a7-bb80-4082-8b6f-ad14b4434c73}, !- Handle
  ASHRAE 189.1-2009 ExtWall Mass ClimateZone 1, !- Name
  ,                                       !- Surface Rendering Name
  {f19d878f-3e60-4ff5-af0c-e7fd077c8faa}, !- Layer 1
  {14c11cd7-22a3-46d3-b257-2ca7c655b87b}, !- Layer 2
  {b17f45d6-f713-447a-9a2b-5b164d2ddf3e}, !- Layer 3
  {715dfedd-923f-434b-a21b-fce3356a8976}; !- Layer 4

OS:StandardsInformation:Construction,
  {fba6d978-0c7d-4ccc-a07a-11da7058ab43}, !- Handle
  {1b11b3a7-bb80-4082-8b6f-ad14b4434c73}, !- Construction Name
  ExteriorWall,                           !- Intended Surface Type
  Mass,                                   !- Standards Construction Type
  ,                                       !- Perturbable Layer
  ,                                       !- Perturbable Layer Type
  ,                                       !- Other Perturbable Layer Type
  ASHRAE 189.1-2009;                      !- Construction Standard

OS:Material,
  {f19d878f-3e60-4ff5-af0c-e7fd077c8faa}, !- Handle
  1IN Stucco,                             !- Name
  Smooth,                                 !- Roughness
  0.0253,                                 !- Thickness {m}
  0.691799999999999,                      !- Conductivity {W/m-K}
  1858,                                   !- Density {kg/m3}
  836.999999999999,                       !- Specific Heat {J/kg-K}
  0.9,                                    !- Thermal Absorptance
  0.92,                                   !- Solar Absorptance
  0.92;                                   !- Visible Absorptance

OS:StandardsInformation:Material,
  {14b4d1bb-d8a6-4fb5-b452-8aada33045a4}, !- Handle
  {f19d878f-3e60-4ff5-af0c-e7fd077c8faa}; !- Material Name

OS:Material,
  {14c11cd7-22a3-46d3-b257-2ca7c655b87b}, !- Handle
  8IN Concrete HW,                        !- Name
  MediumRough,                            !- Roughness
  0.2033,                                 !- Thickness {m}
  1.72959999999999,                       !- Conductivity {W/m-K}
  2242.99999999999,                       !- Density {kg/m3}
  836.999999999999,                       !- Specific Heat {J/kg-K}
  0.9,                                    !- Thermal Absorptance
  0.65,                                   !- Solar Absorptance
  0.65;                                   !- Visible Absorptance

OS:StandardsInformation:Material,
  {550a3091-a0fd-44be-8a87-9d0df0fc23ac}, !- Handle
  {14c11cd7-22a3-46d3-b257-2ca7c655b87b}; !- Material Name

OS:Material,
  {b17f45d6-f713-447a-9a2b-5b164d2ddf3e}, !- Handle
  Wall Insulation [31],                   !- Name
  MediumRough,                            !- Roughness
  0.0337000000000001,                     !- Thickness {m}
  0.0432,                                 !- Conductivity {W/m-K}
  91,                                     !- Density {kg/m3}
  836.999999999999,                       !- Specific Heat {J/kg-K}
  0.9,                                    !- Thermal Absorptance
  0.5,                                    !- Solar Absorptance
  0.5;                                    !- Visible Absorptance

OS:StandardsInformation:Material,
  {6aaffed0-270a-4232-abe4-4679a3fcb861}, !- Handle
  {b17f45d6-f713-447a-9a2b-5b164d2ddf3e}; !- Material Name

OS:Construction,
  {c38594f8-e8ea-4337-b2e7-ad2f22692d02}, !- Handle
  ASHRAE 189.1-2009 ExtWall Mass ClimateZone 2, !- Name
  ,                                       !- Surface Rendering Name
  {f19d878f-3e60-4ff5-af0c-e7fd077c8faa}, !- Layer 1
  {14c11cd7-22a3-46d3-b257-2ca7c655b87b}, !- Layer 2
  {6f21d69c-7447-4be6-938f-fc8be26815df}, !- Layer 3
  {715dfedd-923f-434b-a21b-fce3356a8976}; !- Layer 4

OS:StandardsInformation:Construction,
  {6c05ae5b-391c-4a2d-a0af-a860781f586f}, !- Handle
  {c38594f8-e8ea-4337-b2e7-ad2f22692d02}, !- Construction Name
  ExteriorWall,                           !- Intended Surface Type
  Mass,                                   !- Standards Construction Type
  ,                                       !- Perturbable Layer
  ,                                       !- Perturbable Layer Type
  ,                                       !- Other Perturbable Layer Type
  ASHRAE 189.1-2009;                      !- Construction Standard

OS:Material,
  {6f21d69c-7447-4be6-938f-fc8be26815df}, !- Handle
  Wall Insulation [35],                   !- Name
  MediumRough,                            !- Roughness
  0.0452,                                 !- Thickness {m}
  0.0432,                                 !- Conductivity {W/m-K}
  91,                                     !- Density {kg/m3}
  836.999999999999,                       !- Specific Heat {J/kg-K}
  0.9,                                    !- Thermal Absorptance
  0.5,                                    !- Solar Absorptance
  0.5;                                    !- Visible Absorptance

OS:StandardsInformation:Material,
  {e6e422ac-4c3d-424a-ac3e-c166995cb9b7}, !- Handle
  {6f21d69c-7447-4be6-938f-fc8be26815df}; !- Material Name

OS:Construction,
  {90c75662-aaac-4278-b899-31d88c60995e}, !- Handle
  ASHRAE 189.1-2009 ExtWall Mass ClimateZone 3, !- Name
  ,                                       !- Surface Rendering Name
  {f19d878f-3e60-4ff5-af0c-e7fd077c8faa}, !- Layer 1
  {14c11cd7-22a3-46d3-b257-2ca7c655b87b}, !- Layer 2
  {cd7b251b-020f-4412-a395-7d0813b0ac94}, !- Layer 3
  {715dfedd-923f-434b-a21b-fce3356a8976}; !- Layer 4

OS:StandardsInformation:Construction,
  {32b27b96-dfe2-4a98-986a-1ea8d8d9b2d6}, !- Handle
  {90c75662-aaac-4278-b899-31d88c60995e}, !- Construction Name
  ExteriorWall,                           !- Intended Surface Type
  Mass,                                   !- Standards Construction Type
  ,                                       !- Perturbable Layer
  ,                                       !- Perturbable Layer Type
  ,                                       !- Other Perturbable Layer Type
  ASHRAE 189.1-2009;                      !- Construction Standard

OS:Material,
  {cd7b251b-020f-4412-a395-7d0813b0ac94}, !- Handle
  Wall Insulation [36],                   !- Name
  MediumRough,                            !- Roughness
  0.0565999999999999,                     !- Thickness {m}
  0.0432,                                 !- Conductivity {W/m-K}
  91,                                     !- Density {kg/m3}
  836.999999999999,                       !- Specific Heat {J/kg-K}
  0.9,                                    !- Thermal Absorptance
  0.5,                                    !- Solar Absorptance
  0.5;                                    !- Visible Absorptance

OS:StandardsInformation:Material,
  {2a73107f-6550-432b-b21d-03da5a8b8316}, !- Handle
  {cd7b251b-020f-4412-a395-7d0813b0ac94}; !- Material Name

OS:Construction,
  {8d1c165d-55f4-47f4-836c-14d53aef3986}, !- Handle
  ASHRAE 189.1-2009 ExtWall Mass ClimateZone 4, !- Name
  ,                                       !- Surface Rendering Name
  {f19d878f-3e60-4ff5-af0c-e7fd077c8faa}, !- Layer 1
  {14c11cd7-22a3-46d3-b257-2ca7c655b87b}, !- Layer 2
  {25714401-bebc-47e9-8c84-972689252881}, !- Layer 3
  {715dfedd-923f-434b-a21b-fce3356a8976}; !- Layer 4

OS:StandardsInformation:Construction,
  {8427f2a1-a1fd-4052-88e7-3bff19a22bb1}, !- Handle
  {8d1c165d-55f4-47f4-836c-14d53aef3986}, !- Construction Name
  ExteriorWall,                           !- Intended Surface Type
  Mass,                                   !- Standards Construction Type
  ,                                       !- Perturbable Layer
  ,                                       !- Perturbable Layer Type
  ,                                       !- Other Perturbable Layer Type
  ASHRAE 189.1-2009;                      !- Construction Standard

OS:Material,
  {25714401-bebc-47e9-8c84-972689252881}, !- Handle
  Wall Insulation [37],                   !- Name
  MediumRough,                            !- Roughness
  0.0680999999999999,                     !- Thickness {m}
  0.0432,                                 !- Conductivity {W/m-K}
  91,                                     !- Density {kg/m3}
  836.999999999999,                       !- Specific Heat {J/kg-K}
  0.9,                                    !- Thermal Absorptance
  0.5,                                    !- Solar Absorptance
  0.5;                                    !- Visible Absorptance

OS:StandardsInformation:Material,
  {79d2bc79-809e-4817-aea8-fe5975410e99}, !- Handle
  {25714401-bebc-47e9-8c84-972689252881}; !- Material Name

OS:Construction,
  {0b8051f9-70c9-4382-bd6f-874575629954}, !- Handle
  ASHRAE 189.1-2009 ExtWall Mass ClimateZone 5, !- Name
  ,                                       !- Surface Rendering Name
  {f19d878f-3e60-4ff5-af0c-e7fd077c8faa}, !- Layer 1
  {14c11cd7-22a3-46d3-b257-2ca7c655b87b}, !- Layer 2
  {b8107390-8838-47a1-8fad-e035ab13e52f}, !- Layer 3
  {715dfedd-923f-434b-a21b-fce3356a8976}; !- Layer 4

OS:StandardsInformation:Construction,
  {7349ed2d-8c88-4dac-ab95-3035ebdd5c32}, !- Handle
  {0b8051f9-70c9-4382-bd6f-874575629954}, !- Construction Name
  ExteriorWall,                           !- Intended Surface Type
  Mass,                                   !- Standards Construction Type
  ,                                       !- Perturbable Layer
  ,                                       !- Perturbable Layer Type
  ,                                       !- Other Perturbable Layer Type
  ASHRAE 189.1-2009;                      !- Construction Standard

OS:Material,
  {b8107390-8838-47a1-8fad-e035ab13e52f}, !- Handle
  Wall Insulation [40],                   !- Name
  MediumRough,                            !- Roughness
  0.0793999999999999,                     !- Thickness {m}
  0.0432,                                 !- Conductivity {W/m-K}
  91,                                     !- Density {kg/m3}
  836.999999999999,                       !- Specific Heat {J/kg-K}
  0.9,                                    !- Thermal Absorptance
  0.5,                                    !- Solar Absorptance
  0.5;                                    !- Visible Absorptance

OS:StandardsInformation:Material,
  {d8ddec66-1975-40f3-bc04-8f74e0d24f7b}, !- Handle
  {b8107390-8838-47a1-8fad-e035ab13e52f}; !- Material Name

OS:Construction,
  {882ec64b-9edb-48fb-88ef-f80af3e4acbb}, !- Handle
  ASHRAE 189.1-2009 ExtWall Mass ClimateZone 6, !- Name
  ,                                       !- Surface Rendering Name
  {f19d878f-3e60-4ff5-af0c-e7fd077c8faa}, !- Layer 1
  {14c11cd7-22a3-46d3-b257-2ca7c655b87b}, !- Layer 2
  {75b4d92b-a21f-4a7f-8862-f1e0c2d6dcae}, !- Layer 3
  {715dfedd-923f-434b-a21b-fce3356a8976}; !- Layer 4

OS:StandardsInformation:Construction,
  {a51c6fb6-3e9c-41ad-9280-6702ce26205f}, !- Handle
  {882ec64b-9edb-48fb-88ef-f80af3e4acbb}, !- Construction Name
  ExteriorWall,                           !- Intended Surface Type
  Mass,                                   !- Standards Construction Type
  ,                                       !- Perturbable Layer
  ,                                       !- Perturbable Layer Type
  ,                                       !- Other Perturbable Layer Type
  ASHRAE 189.1-2009;                      !- Construction Standard

OS:Material,
  {75b4d92b-a21f-4a7f-8862-f1e0c2d6dcae}, !- Handle
  Wall Insulation [42],                   !- Name
  MediumRough,                            !- Roughness
  0.0913999999999999,                     !- Thickness {m}
  0.0432,                                 !- Conductivity {W/m-K}
  91,                                     !- Density {kg/m3}
  836.999999999999,                       !- Specific Heat {J/kg-K}