
OS:Version,
  {67a1cdc5-c371-4452-b1f1-0e582afce0d4}, !- Handle
  1.3.3;                                  !- Version Identifier

OS:Construction,
  {cbe7ff78-5a9d-4d84-922b-93bb2634f455}, !- Handle
  ASHRAE 189.1-2009 AtticFloor ClimateZone 1-8, !- Name
  ,                                       !- Surface Rendering Name
  {b190f98f-26e0-4bbd-8678-3609961a25fc}, !- Layer 1
  {3c1d3f81-1058-4c94-beec-73d1b8e65b55}, !- Layer 2
  {b190f98f-26e0-4bbd-8678-3609961a25fc}; !- Layer 3

OS:StandardsInformation:Construction,
  {5f0acbef-64da-47d9-ae44-204a27b6c15f}, !- Handle
  {cbe7ff78-5a9d-4d84-922b-93bb2634f455}, !- Construction Name
  AtticFloor,                             !- Intended Surface Type
  WoodFramed;                             !- Standards Construction Type

OS:Material,
  {b190f98f-26e0-4bbd-8678-3609961a25fc}, !- Handle
  1/2IN Gypsum,                           !- Name
  Smooth,                                 !- Roughness
  0.0127,                                 !- Thickness {m}
  0.16,                                   !- Conductivity {W/m-K}
  784.9,                                  !- Density {kg/m3}
  830.000000000001,                       !- Specific Heat {J/kg-K}
  0.9,                                    !- Thermal Absorptance
  0.4,                                    !- Solar Absorptance
  0.4;                                    !- Visible Absorptance

OS:Material,
  {3c1d3f81-1058-4c94-beec-73d1b8e65b55}, !- Handle
  AtticFloor Insulation,                  !- Name
  MediumRough,                            !- Roughness
  0.2379,                                 !- Thickness {m}
  0.049,                                  !- Conductivity {W/m-K}
  265,                                    !- Density {kg/m3}
  836.800000000001,                       !- Specific Heat {J/kg-K}
  0.9,                                    !- Thermal Absorptance
  0.7,                                    !- Solar Absorptance
  0.7;                                    !- Visible Absorptance

OS:Construction,
  {834ad579-46a2-4102-b021-02fb285fab97}, !- Handle
  ASHRAE 189.1-2009 ExtRoof IEAD ClimateZone 1, !- Name
  ,                                       !- Surface Rendering Name
  {c74b6d5b-d5b8-410b-a5c5-fe4f8e0c0aee}, !- Layer 1
  {c7b01bc0-8a89-4809-acc8-df67b8e75d43}, !- Layer 2
  {66c6e841-26ca-44aa-b10c-4e503274b0c7}; !- Layer 3

OS:StandardsInformation:Construction,
  {c68ad1a2-a05c-45d9-9b29-2b940e27d025}, !- Handle
  {834ad579-46a2-4102-b021-02fb285fab97}, !- Construction Name
  ExteriorRoof,                           !- Intended Surface Type
  IEAD;                                   !- Standards Construction Type

OS:Material,
  {c74b6d5b-d5b8-410b-a5c5-fe4f8e0c0aee}, !- Handle
  Roof Membrane,                          !- Name
  VeryRough,                              !- Roughness
  0.0095,                                 !- Thickness {m}
  0.16,                                   !- Conductivity {W/m-K}
  1121.29,                                !- Density {kg/m3}
  1460,                                   !- Specific Heat {J/kg-K}
  0.9,                                    !- Thermal Absorptance
  0.7,                                    !- Solar Absorptance
  0.7;                                    !- Visible Absorptance

OS:Material,
  {c7b01bc0-8a89-4809-acc8-df67b8e75d43}, !- Handle
  Roof Insulation [18],                   !- Name
  MediumRough,                            !- Roughness
  0.1693,                                 !- Thickness {m}
  0.049,                                  !- Conductivity {W/m-K}
  265,                                    !- Density {kg/m3}
  836.800000000001,                       !- Specific Heat {J/kg-K}
  0.9,                                    !- Thermal Absorptance
  0.7,                                    !- Solar Absorptance
  0.7;                                    !- Visible Absorptance

OS:Material,
  {66c6e841-26ca-44aa-b10c-4e503274b0c7}, !- Handle
  Metal Decking,                          !- Name
  MediumSmooth,                           !- Roughness
  0.0015,                                 !- Thickness {m}
  45.006,                                 !- Conductivity {W/m-K}
  7680,                                   !- Density {kg/m3}
  418.4,                                  !- Specific Heat {J/kg-K}
  0.9,                                    !- Thermal Absorptance
  0.6,                                    !- Solar Absorptance
  0.6;                                    !- Visible Absorptance

OS:Construction,
  {1aff2bee-521a-4608-9a46-bb46df236726}, !- Handle
  ASHRAE 189.1-2009 ExtRoof IEAD ClimateZone 2-5, !- Name
  ,                                       !- Surface Rendering Name
  {c74b6d5b-d5b8-410b-a5c5-fe4f8e0c0aee}, !- Layer 1
  {6b37988f-2c2f-46bd-aa5b-b564504edfd7}, !- Layer 2
  {66c6e841-26ca-44aa-b10c-4e503274b0c7}; !- Layer 3

OS:StandardsInformation:Construction,
  {5c840bf8-445a-4939-9a27-118f4b1ce0b2}, !- Handle
  {1aff2bee-521a-4608-9a46-bb46df236726}, !- Construction Name
  ExteriorRoof,                           !- Intended Surface Type
  IEAD;                                   !- Standards Construction Type

OS:Material,
  {6b37988f-2c2f-46bd-aa5b-b564504edfd7}, !- Handle
  Roof Insulation [21],                   !- Name
  MediumRough,                            !- Roughness
  0.2105,                                 !- Thickness {m}
  0.049,                                  !- Conductivity {W/m-K}
  265,                                    !- Density {kg/m3}
  836.800000000001,                       !- Specific Heat {J/kg-K}
  0.9,                                    !- Thermal Absorptance
  0.7,                                    !- Solar Absorptance
  0.7;                                    !- Visible Absorptance

OS:Construction,
  {845567c0-114b-4954-ab32-a23f1922eebd}, !- Handle
  ASHRAE 189.1-2009 ExtRoof IEAD ClimateZone 6, !- Name
  ,                                       !- Surface Rendering Name
  {c74b6d5b-d5b8-410b-a5c5-fe4f8e0c0aee}, !- Layer 1
  {9f09d3d3-b534-41bf-afed-1b1678907cc9}, !- Layer 2
  {66c6e841-26ca-44aa-b10c-4e503274b0c7}; !- Layer 3

OS:StandardsInformation:Construction,
  {de89170d-62ba-4c97-bda3-89287b622313}, !- Handle
  {845567c0-114b-4954-ab32-a23f1922eebd}, !- Construction Name
  ExteriorRoof,                           !- Intended Surface Type
  IEAD;                                   !- Standards Construction Type

OS:Material,
  {9f09d3d3-b534-41bf-afed-1b1678907cc9}, !- Handle
  Roof Insulation [24],                   !- Name
  MediumRough,                            !- Roughness
  0.260100000000001,                      !- Thickness {m}
  0.049,                                  !- Conductivity {W/m-K}
  265,                                    !- Density {kg/m3}
  836.800000000001,                       !- Specific Heat {J/kg-K}
  0.9,                                    !- Thermal Absorptance
  0.7,                                    !- Solar Absorptance
  0.7;                                    !- Visible Absorptance

OS:Construction,
  {6024543c-efb3-4afd-bfb4-2300f57f8909}, !- Handle
  ASHRAE 189.1-2009 ExtRoof IEAD ClimateZone 7-8, !- Name
  ,                                       !- Surface Rendering Name
  {c74b6d5b-d5b8-410b-a5c5-fe4f8e0c0aee}, !- Layer 1
  {ea14533b-8e11-4619-8997-6e97da28fae3}, !- Layer 2
  {66c6e841-26ca-44aa-b10c-4e503274b0c7}; !- Layer 3

OS:StandardsInformation:Construction,
  {8c4c5d98-7fd1-40bd-8545-10d1bdc4f8e3}, !- Handle
  {6024543c-efb3-4afd-bfb4-2300f57f8909}, !- Construction Name
  ExteriorRoof,                           !- Intended Surface Type
  IEAD;                                   !- Standards Construction Type

OS:Material,
  {ea14533b-8e11-4619-8997-6e97da28fae3}, !- Handle
  Roof Insulation [26],                   !- Name
  MediumRough,                            !- Roughness
  0.2941,                                 !- Thickness {m}
  0.049,                                  !- Conductivity {W/m-K}
  265,                                    !- Density {kg/m3}
  836.800000000001,                       !- Specific Heat {J/kg-K}
  0.9,                                    !- Thermal Absorptance
  0.7,                                    !- Solar Absorptance
  0.7;                                    !- Visible Absorptance

OS:Construction,
  {66fc37bd-1aa1-428d-b1da-06ca042a5e1b}, !- Handle
  ASHRAE 189.1-2009 ExtRoof Metal ClimateZone 1, !- Name
  ,                                       !- Surface Rendering Name
  {a64549a9-0c3c-47a9-9137-cd2a5f8e3297}, !- Layer 1
  {dda40b25-c1a0-4899-9bfa-8a1fa20548b1}, !- Layer 2
  {66c6e841-26ca-44aa-b10c-4e503274b0c7}; !- Layer 3

OS:StandardsInformation:Construction,
  {3c913bb2-ecbc-48c6-a6fd-c0d26c5b7ec9}, !- Handle
  {66fc37bd-1aa1-428d-b1da-06ca042a5e1b}, !- Construction Name
  ExteriorRoof,                           !- Intended Surface Type
  Metal;                                  !- Standards Construction Type

OS:Material,
  {a64549a9-0c3c-47a9-9137-cd2a5f8e3297}, !- Handle
  Metal Roofing,                          !- Name
  MediumSmooth,                           !- Roughness
  0.0015,                                 !- Thickness {m}
  45.006,                                 !- Conductivity {W/m-K}
  7680,                                   !- Density {kg/m3}
  418.4,                                  !- Specific Heat {J/kg-K}
  0.9,                                    !- Thermal Absorptance
  0.6,                                    !- Solar Absorptance
  0.6;                                    !- Visible Absorptance

OS:Material,
  {dda40b25-c1a0-4899-9bfa-8a1fa20548b1}, !- Handle
  Roof Insulation [19],                   !- Name
  MediumRough,                            !- Roughness
  0.1868,                                 !- Thickness {m}
  0.049,                                  !- Conductivity {W/m-K}
  265,                                    !- Density {kg/m3}
  836.800000000001,                       !- Specific Heat {J/kg-K}
  0.9,                                    !- Thermal Absorptance
  0.7,                                    !- Solar Absorptance
  0.7;                                    !- Visible Absorptance

OS:Construction,
  {c9c3f9c2-9247-48df-b1f0-61b898b26367}, !- Handle
  ASHRAE 189.1-2009 ExtRoof Metal ClimateZone 2-5, !- Name
  ,                                       !- Surface Rendering Name
  {a64549a9-0c3c-47a9-9137-cd2a5f8e3297}, !- Layer 1
  {aae15197-9c71-4903-8b68-5975931ec9af}, !- Layer 2
  {66c6e841-26ca-44aa-b10c-4e503274b0c7}; !- Layer 3

OS:StandardsInformation:Construction,
  {50182004-a9cb-4435-b3dd-ff6a9ea27dd2}, !- Handle
  {c9c3f9c2-9247-48df-b1f0-61b898b26367}, !- Construction Name
  ExteriorRoof,                           !- Intended Surface Type
  Metal;                                  !- Standards Construction Type

OS:Material,
  {aae15197-9c71-4903-8b68-5975931ec9af}, !- Handle
  Roof Insulation [22],                   !- Name
  MediumRough,                            !- Roughness
  0.2358,                                 !- Thickness {m}
  0.049,                                  !- Conductivity {W/m-K}
  265,                                    !- Density {kg/m3}
  836.800000000001,                       !- Specific Heat {J/kg-K}
  0.9,                                    !- Thermal Absorptance
  0.7,                                    !- Solar Absorptance
  0.7;                                    !- Visible Absorptance

OS:Construction,
  {3c0cf6d9-8d3b-4a3d-b6b1-2e6f609d575e}, !- Handle
  ASHRAE 189.1-2009 ExtRoof Metal ClimateZone 6, !- Name
  ,                                       !- Surface Rendering Name
  {a64549a9-0c3c-47a9-9137-cd2a5f8e3297}, !- Layer 1
  {8ef86686-ea80-4ce0-9ea4-abbb03e4a2db}, !- Layer 2
  {66c6e841-26ca-44aa-b10c-4e503274b0c7}; !- Layer 3

OS:StandardsInformation:Construction,
  {899851d1-5d89-49b7-9878-50529b3ecec1}, !- Handle
  {3c0cf6d9-8d3b-4a3d-b6b1-2e6f609d575e}, !- Construction Name
  ExteriorRoof,                           !- Intended Surface Type
  Metal;                                  !- Standards Construction Type

OS:Material,
  {8ef86686-ea80-4ce0-9ea4-abbb03e4a2db}, !- Handle
  Roof Insulation [25],                   !- Name
  MediumRough,                            !- Roughness
  0.263,                                  !- Thickness {m}
  0.049,                                  !- Conductivity {W/m-K}
  265,                                    !- Density {kg/m3}
  836.800000000001,                       !- Specific Heat {J/kg-K}
  0.9,                                    !- Thermal Absorptance
  0.7,                                    !- Solar Absorptance
  0.7;                                    !- Visible Absorptance

OS:Construction,
  {10b22ae9-c65d-4913-89de-fcfe54a3c761}, !- Handle
  ASHRAE 189.1-2009 ExtRoof Metal ClimateZone 7-8, !- Name
  ,                                       !- Surface Rendering Name
  {a64549a9-0c3c-47a9-9137-cd2a5f8e3297}, !- Layer 1
  {4149d98e-fe43-4fcf-82e4-324af9215700}, !- Layer 2
  {66c6e841-26ca-44aa-b10c-4e503274b0c7}; !- Layer 3

OS:StandardsInformation:Construction,
  {2bd0d516-0730-4dc5-957c-6328304c1760}, !- Handle
  {10b22ae9-c65d-4913-89de-fcfe54a3c761}, !- Construction Name
  ExteriorRoof,                           !- Intended Surface Type
  Metal;                                  !- Standards Construction Type

OS:Material,
  {4149d98e-fe43-4fcf-82e4-324af9215700}, !- Handle
  Roof Insulation [27],                   !- Name
  MediumRough,                            !- Roughness
  0.297000000000001,                      !- Thickness {m}
  0.049,                                  !- Conductivity {W/m-K}
  265,                                    !- Density {kg/m3}
  836.800000000001,                       !- Specific Heat {J/kg-K}
  0.9,                                    !- Thermal Absorptance
  0.7,                                    !- Solar Absorptance
  0.7;                                    !- Visible Absorptance

OS:Construction,
  {93758770-0867-4b88-ad8a-b45ed813e289}, !- Handle
  ASHRAE 189.1-2009 ExtWall Mass ClimateZone 1, !- Name
  ,                                       !- Surface Rendering Name
  {84318375-4644-4187-af0f-972c468317f0}, !- Layer 1
  {e7cff303-dfeb-4d2a-980e-76a85b9cb4a9}, !- Layer 2
  {ce2ba5ce-5a3e-4fd6-aa1b-2a53c51ff00f}, !- Layer 3
  {b190f98f-26e0-4bbd-8678-3609961a25fc}; !- Layer 4

OS:StandardsInformation:Construction,
  {a6999ed9-1828-4ebf-96e8-4c75dadc0aaa}, !- Handle
  {93758770-0867-4b88-ad8a-b45ed813e289}, !- Construction Name
  ExteriorWall,                           !- Intended Surface Type
  Mass;                                   !- Standards Construction Type

OS:Material,
  {84318375-4644-4187-af0f-972c468317f0}, !- Handle
  1IN Stucco,                             !- Name
  Smooth,                                 !- Roughness
  0.0253,                                 !- Thickness {m}
  0.691799999999999,                      !- Conductivity {W/m-K}
  1858,                                   !- Density {kg/m3}
  836.999999999999,                       !- Specific Heat {J/kg-K}
  0.9,                                    !- Thermal Absorptance
  0.92,                                   !- Solar Absorptance
  0.92;                                   !- Visible Absorptance

OS:Material,
  {e7cff303-dfeb-4d2a-980e-76a85b9cb4a9}, !- Handle
  8IN Concrete HW,                        !- Name
  MediumRough,                            !- Roughness
  0.2033,                                 !- Thickness {m}
  1.72959999999999,                       !- Conductivity {W/m-K}
  2242.99999999999,                       !- Density {kg/m3}
  836.999999999999,                       !- Specific Heat {J/kg-K}
  0.9,                                    !- Thermal Absorptance
  0.65,                                   !- Solar Absorptance
  0.65;                                   !- Visible Absorptance

OS:Material,
  {ce2ba5ce-5a3e-4fd6-aa1b-2a53c51ff00f}, !- Handle
  Wall Insulation [31],                   !- Name
  MediumRough,                            !- Roughness
  0.0337000000000001,                     !- Thickness {m}
  0.0432,                                 !- Conductivity {W/m-K}
  91,                                     !- Density {kg/m3}
  836.999999999999,                       !- Specific Heat {J/kg-K}
  0.9,                                    !- Thermal Absorptance
  0.5,                                    !- Solar Absorptance
  0.5;                                    !- Visible Absorptance

OS:Construction,
  {d150f220-5970-4276-ad70-840fc277a6cd}, !- Handle
  ASHRAE 189.1-2009 ExtWall Mass ClimateZone 2, !- Name
  ,                                       !- Surface Rendering Name
  {84318375-4644-4187-af0f-972c468317f0}, !- Layer 1
  {e7cff303-dfeb-4d2a-980e-76a85b9cb4a9}, !- Layer 2
  {8b53eadd-2561-422c-b9e9-67ca96e648c5}, !- Layer 3
  {b190f98f-26e0-4bbd-8678-3609961a25fc}; !- Layer 4

OS:StandardsInformation:Construction,
  {b3c46e16-6c57-4ae0-806b-ab8194b3b7d8}, !- Handle
  {d150f220-5970-4276-ad70-840fc277a6cd}, !- Construction Name
  ExteriorWall,                           !- Intended Surface Type
  Mass;                                   !- Standards Construction Type

OS:Material,
  {8b53eadd-2561-422c-b9e9-67ca96e648c5}, !- Handle
  Wall Insulation [35],                   !- Name
  MediumRough,                            !- Roughness
  0.0452,                                 !- Thickness {m}
  0.0432,                                 !- Conductivity {W/m-K}
  91,                                     !- Density {kg/m3}
  836.999999999999,                       !- Specific Heat {J/kg-K}
  0.9,                                    !- Thermal Absorptance
  0.5,                                    !- Solar Absorptance
  0.5;                                    !- Visible Absorptance

OS:Construction,
  {6556f32a-ad5b-4583-a15c-0f0ef3f3f948}, !- Handle
  ASHRAE 189.1-2009 ExtWall Mass ClimateZone 3, !- Name
  ,                                       !- Surface Rendering Name
  {84318375-4644-4187-af0f-972c468317f0}, !- Layer 1
  {e7cff303-dfeb-4d2a-980e-76a85b9cb4a9}, !- Layer 2
  {fb91bc73-d648-4ec7-8e67-277fe664b3cc}, !- Layer 3
  {b190f98f-26e0-4bbd-8678-3609961a25fc}; !- Layer 4

OS:StandardsInformation:Construction,
  {7e2948f5-f12c-42aa-9e89-dd133973b959}, !- Handle
  {6556f32a-ad5b-4583-a15c-0f0ef3f3f948}, !- Construction Name
  ExteriorWall,                           !- Intended Surface Type
  Mass;                                   !- Standards Construction Type

OS:Material,
  {fb91bc73-d648-4ec7-8e67-277fe664b3cc}, !- Handle
  Wall Insulation [36],                   !- Name
  MediumRough,                            !- Roughness
  0.0565999999999999,                     !- Thickness {m}
  0.0432,                                 !- Conductivity {W/m-K}
  91,                                     !- Density {kg/m3}
  836.999999999999,                       !- Specific Heat {J/kg-K}
  0.9,                                    !- Thermal Absorptance
  0.5,                                    !- Solar Absorptance
  0.5;                                    !- Visible Absorptance

OS:Construction,
  {ba4373b2-996a-4688-a967-d7aeaf7c7cd4}, !- Handle
  ASHRAE 189.1-2009 ExtWall Mass ClimateZone 4, !- Name
  ,                                       !- Surface Rendering Name
  {84318375-4644-4187-af0f-972c468317f0}, !- Layer 1
  {e7cff303-dfeb-4d2a-980e-76a85b9cb4a9}, !- Layer 2
  {32e80f6e-a0f7-4928-873a-0b1c8a3eab07}, !- Layer 3
  {b190f98f-26e0-4bbd-8678-3609961a25fc}; !- Layer 4

OS:StandardsInformation:Construction,
  {71273ce9-3ab3-4f75-9d7d-0b229a095d5a}, !- Handle
  {ba4373b2-996a-4688-a967-d7aeaf7c7cd4}, !- Construction Name
  ExteriorWall,                           !- Intended Surface Type
  Mass;                                   !- Standards Construction Type

OS:Material,
  {32e80f6e-a0f7-4928-873a-0b1c8a3eab07}, !- Handle
  Wall Insulation [37],                   !- Name
  MediumRough,                            !- Roughness
  0.0680999999999999,                     !- Thickness {m}
  0.0432,                                 !- Conductivity {W/m-K}
  91,                                     !- Density {kg/m3}
  836.999999999999,                       !- Specific Heat {J/kg-K}
  0.9,                                    !- Thermal Absorptance
  0.5,                                    !- Solar Absorptance
  0.5;                                    !- Visible Absorptance

OS:Construction,
  {8d632c5b-5325-4944-a2ed-4e6f20a9f419}, !- Handle
  ASHRAE 189.1-2009 ExtWall Mass ClimateZone 5, !- Name
  ,                                       !- Surface Rendering Name
  {84318375-4644-4187-af0f-972c468317f0}, !- Layer 1
  {e7cff303-dfeb-4d2a-980e-76a85b9cb4a9}, !- Layer 2
  {96f68216-abec-421d-9193-37a6817fc6cf}, !- Layer 3
  {b190f98f-26e0-4bbd-8678-3609961a25fc}; !- Layer 4

OS:StandardsInformation:Construction,
  {e69a7b4b-0ace-4af9-9e57-52d91a7250cc}, !- Handle
  {8d632c5b-5325-4944-a2ed-4e6f20a9f419}, !- Construction Name
  ExteriorWall,                           !- Intended Surface Type
  Mass;                                   !- Standards Construction Type

OS:Material,
  {96f68216-abec-421d-9193-37a6817fc6cf}, !- Handle
  Wall Insulation [40],                   !- Name
  MediumRough,                            !- Roughness
  0.0793999999999999,                     !- Thickness {m}
  0.0432,                                 !- Conductivity {W/m-K}
  91,                                     !- Density {kg/m3}
  836.999999999999,                       !- Specific Heat {J/kg-K}
  0.9,                                    !- Thermal Absorptance
  0.5,                                    !- Solar Absorptance
  0.5;                                    !- Visible Absorptance

OS:Construction,
  {5bcf19ec-d905-4002-bbd7-8766f5269159}, !- Handle
  ASHRAE 189.1-2009 ExtWall Mass ClimateZone 6, !- Name
  ,                                       !- Surface Rendering Name
  {84318375-4644-4187-af0f-972c468317f0}, !- Layer 1
  {e7cff303-dfeb-4d2a-980e-76a85b9cb4a9}, !- Layer 2
  {cdc49b6e-6940-47c2-b6ae-96e9cca13801}, !- Layer 3
  {b190f98f-26e0-4bbd-8678-3609961a25fc}; !- Layer 4

OS:StandardsInformation:Construction,
  {1dc0b4aa-088c-4f54-901b-2c4bc12cc2bf}, !- Handle
  {5bcf19ec-d905-4002-bbd7-8766f5269159}, !- Construction Name
  ExteriorWall,                           !- Intended Surface Type
  Mass;                                   !- Standards Construction Type

OS:Material,
  {cdc49b6e-6940-47c2-b6ae-96e9cca13801}, !- Handle
  Wall Insulation [42],                   !- Name
  MediumRough,                            !- Roughness
  0.0913999999999999,                     !- Thickness {m}
  0.0432,                                 !- Conductivity {W/m-K}
  91,                                     !- Density {kg/m3}
  836.999999999999,                       !- Specific Heat {J/kg-K}
  0.9,                                    !- Thermal Absorptance
  0.5,                                    !- Solar Absorptance
  0.5;                                    !- Visible Absorptance

OS:Construction,
  {3c45804e-eeaf-4691-aa0b-886bc46a6cb5}, !- Handle
  ASHRAE 189.1-2009 ExtWall Mass ClimateZone 7-8, !- Name
  ,                                       !- Surface Rendering Name
  {84318375-4644-4187-af0f-972c468317f0}, !- Layer 1
  {e7cff303-dfeb-4d2a-980e-76a85b9cb4a9}, !- Layer 2
  {e5aa77b7-887c-4301-becb-d9d84955011f}, !- Layer 3
  {b190f98f-26e0-4bbd-8678-3609961a25fc}; !- Layer 4

OS:StandardsInformation:Construction,
  {78af0205-50d2-4880-a10f-4bfa130779f0}, !- Handle
  {3c45804e-eeaf-4691-aa0b-886bc46a6cb5}, !- Construction Name
  ExteriorWall,                           !- Intended Surface Type
  Mass;                                   !- Standards Construction Type

OS:Material,
  {e5aa77b7-887c-4301-becb-d9d84955011f}, !- Handle
  Wall Insulation [44],                   !- Name
  MediumRough,                            !- Roughness
  0.1104,                                 !- Thickness {m}
  0.0432,                                 !- Conductivity {W/m-K}
  91,                                     !- Density {kg/m3}
  836.999999999999,                       !- Specific Heat {J/kg-K}
  0.9,                                    !- Thermal Absorptance
  0.5,                                    !- Solar Absorptance
  0.5;                                    !- Visible Absorptance

OS:Construction,
  {0fdcf6bd-94a8-4522-a729-aaa14baf0152}, !- Handle
  ASHRAE 189.1-2009 ExtWall Mass ClimateZone alt-res 1, !- Name
  ,                                       !- Surface Rendering Name
  {84318375-4644-4187-af0f-972c468317f0}, !- Layer 1
  {e7cff303-dfeb-4d2a-980e-76a85b9cb4a9}, !- Layer 2
  {8b53eadd-2561-422c-b9e9-67ca96e648c5}, !- Layer 3
  {b190f98f-26e0-4bbd-8678-3609961a25fc}; !- Layer 4

OS:StandardsInformation:Construction,
  {1c2451c4-ee23-4dc9-9437-5fe2a8857134}, !- Handle
  {0fdcf6bd-94a8-4522-a729-aaa14baf0152}, !- Construction Name
  ExteriorWall,                           !- Intended Surface Type
  Mass;                                   !- Standards Construction Type

OS:Construction,
  {38b3723c-87b5-42e7-ad2b-241cfa4d4303}, !- Handle
  ASHRAE 189.1-2009 ExtWall Mass ClimateZone alt-res 2, !- Name
  ,                                       !- Surface Rendering Name
  {84318375-4644-4187-af0f-972c468317f0}, !- Layer 1
  {e7cff303-dfeb-4d2a-980e-76a85b9cb4a9}, !- Layer 2
  {fb91bc73-d648-4ec7-8e67-277fe664b3cc}, !- Layer 3
  {b190f98f-26e0-4bbd-8678-3609961a25fc}; !- Layer 4

OS:StandardsInformation:Construction,
  {73e7d6b5-f009-4d2d-a980-d56e75e70d0b}, !- Handle
  {38b3723c-87b5-42e7-ad2b-241cfa4d4303}, !- Construction Name
  ExteriorWall,                           !- Intended Surface Type
  Mass;                                   !- Standards Construction Type

OS:Construction,
  {0cf0176b-d643-4488-a387-b8bcaae09e53}, !- Handle
  ASHRAE 189.1-2009 ExtWall Mass ClimateZone alt-res 3, !- Name
  ,                                       !- Surface Rendering Name
  {84318375-4644-4187-af0f-972c468317f0}, !- Layer 1
  {e7cff303-dfeb-4d2a-980e-76a85b9cb4a9}, !- Layer 2
  {32e80f6e-a0f7-4928-873a-0b1c8a3eab07}, !- Layer 3
  {b190f98f-26e0-4bbd-8678-3609961a25fc}; !- Layer 4

OS:StandardsInformation:Construction,
  {51ccce49-bbce-4b7e-89ee-7b80f808e9c3}, !- Handle
  {0cf0176b-d643-4488-a387-b8bcaae09e53}, !- Construction Name
  ExteriorWall,                           !- Intended Surface Type
  Mass;                                   !- Standards Construction Type

OS:Construction,
  {d7fd8f48-d89f-403c-a9bd-a8d61b51ab66}, !- Handle
  ASHRAE 189.1-2009 ExtWall Mass ClimateZone alt-res 4, !- Name
  ,                                       !- Surface Rendering Name
  {84318375-4644-4187-af0f-972c468317f0}, !- Layer 1
  {e7cff303-dfeb-4d2a-980e-76a85b9cb4a9}, !- Layer 2
  {96f68216-abec-421d-9193-37a6817fc6cf}, !- Layer 3
  {b190f98f-26e0-4bbd-8678-3609961a25fc}; !- Layer 4

OS:StandardsInformation:Construction,
  {655753db-ca6b-4d66-b038-fa5e9deed7e1}, !- Handle
  {d7fd8f48-d89f-403c-a9bd-a8d61b51ab66}, !- Construction Name
  ExteriorWall,                           !- Intended Surface Type
  Mass;                                   !- Standards Construction Type

OS:Construction,
  {821cb0e3-e82b-46ef-8e01-8265559f5062}, !- Handle
  ASHRAE 189.1-2009 ExtWall Mass ClimateZone alt-res 5, !- Name
  ,                                       !- Surface Rendering Name
  {84318375-4644-4187-af0f-972c468317f0}, !- Layer 1
  {e7cff303-dfeb-4d2a-980e-76a85b9cb4a9}, !- Layer 2
  {cdc49b6e-6940-47c2-b6ae-96e9cca13801}, !- Layer 3
  {b190f98f-26e0-4bbd-8678-3609961a25fc}; !- Layer 4

OS:StandardsInformation:Construction,
  {dcc82cfb-529c-4830-8cea-8ca6172ddb43}, !- Handle
  {821cb0e3-e82b-46ef-8e01-8265559f5062}, !- Construction Name
  ExteriorWall,                           !- Intended Surface Type
  Mass;                                   !- Standards Construction Type

OS:Construction,
  {ed632b29-1d8a-41ac-b5c8-e76a4b666ebc}, !- Handle
  ASHRAE 189.1-2009 ExtWall Mass ClimateZone alt-res 6, !- Name
  ,                                       !- Surface Rendering Name
  {84318375-4644-4187-af0f-972c468317f0}, !- Layer 1
  {e7cff303-dfeb-4d2a-980e-76a85b9cb4a9}, !- Layer 2
  {e5aa77b7-887c-4301-becb-d9d84955011f}, !- Layer 3
  {b190f98f-26e0-4bbd-8678-3609961a25fc}; !- Layer 4

OS:StandardsInformation:Construction,
  {f9bb164c-6d95-4e85-a1e3-2668c12bb5f0}, !- Handle
  {ed632b29-1d8a-41ac-b5c8-e76a4b666ebc}, !- Construction Name
  ExteriorWall,                           !- Intended Surface Type
  Mass;                                   !- Standards Construction Type

OS:Construction,
  {14652155-ca5f-48ef-86df-715d479b7601}, !- Handle
  ASHRAE 189.1-2009 ExtWall Mass ClimateZone alt-res 7, !- Name
  ,                                       !- Surface Rendering Name
  {84318375-4644-4187-af0f-972c468317f0}, !- Layer 1
  {e7cff303-dfeb-4d2a-980e-76a85b9cb4a9}, !- Layer 2
  {e5aa77b7-887c-4301-becb-d9d84955011f}, !- Layer 3
  {b190f98f-26e0-4bbd-8678-3609961a25fc}; !- Layer 4

OS:StandardsInformation:Construction,
  {3403720e-3efc-49b9-b699-5911b5cf298c}, !- Handle
  {14652155-ca5f-48ef-86df-715d479b7601}, !- Construction Name
  ExteriorWall,                           !- Intended Surface Type