
OS:Version,
  {ceb377b4-0e48-43a1-a7e1-91c037ae4c61}, !- Handle
  1.2.3;                                  !- Version Identifier

OS:Construction,
  {6817ecd3-5cfd-43b8-bd98-e6a7014d1de7}, !- Handle
  ASHRAE 189.1-2009 AtticFloor ClimateZone 1-8, !- Name
  ,                                       !- Surface Rendering Name
  {ec45c7af-5bc1-4233-b355-d3c152921332}, !- Layer 1
  {a8352c3f-1411-4034-932c-019c87f2e62f}, !- Layer 2
  {ec45c7af-5bc1-4233-b355-d3c152921332}; !- Layer 3

OS:StandardsInformation:Construction,
  {36ec3eeb-f9cf-4fb3-ab28-72536581d218}, !- Handle
  {6817ecd3-5cfd-43b8-bd98-e6a7014d1de7}, !- Construction Name
  AtticFloor,                             !- Intended Surface Type
  WoodFramed;                             !- Standards Construction Type

OS:Material,
  {ec45c7af-5bc1-4233-b355-d3c152921332}, !- Handle
  1/2IN Gypsum,                           !- Name
  Smooth,                                 !- Roughness
  0.0127,                                 !- Thickness {m}
  0.16,                                   !- Conductivity {W/m-K}
  784.9,                                  !- Density {kg/m3}
  830.000000000001,                       !- Specific Heat {J/kg-K}
  0.9,                                    !- Thermal Absorptance
  0.92,                                   !- Solar Absorptance
  0.92;                                   !- Visible Absorptance

OS:Material,
  {a8352c3f-1411-4034-932c-019c87f2e62f}, !- Handle
  AtticFloor Insulation,                  !- Name
  MediumRough,                            !- Roughness
  0.2379,                                 !- Thickness {m}
  0.049,                                  !- Conductivity {W/m-K}
  265,                                    !- Density {kg/m3}
  836.800000000001,                       !- Specific Heat {J/kg-K}
  0.9,                                    !- Thermal Absorptance
  0.7,                                    !- Solar Absorptance
  0.7;                                    !- Visible Absorptance

OS:Construction,
  {05952852-1a0c-46dc-8e57-76c13050f662}, !- Handle
  ASHRAE 189.1-2009 ExtRoof IEAD ClimateZone 1, !- Name
  ,                                       !- Surface Rendering Name
  {0c9d1172-641d-421e-95d3-a02017540908}, !- Layer 1
  {93094692-dffa-49c1-8abd-b5cdbc06bf80}, !- Layer 2
  {b7fca0b7-8188-4f05-a8e7-6d6aca888f9b}; !- Layer 3

OS:StandardsInformation:Construction,
  {d419f219-84c7-4597-8504-5d3207d23c6c}, !- Handle
  {05952852-1a0c-46dc-8e57-76c13050f662}, !- Construction Name
  ExteriorRoof,                           !- Intended Surface Type
  IEAD;                                   !- Standards Construction Type

OS:Material,
  {0c9d1172-641d-421e-95d3-a02017540908}, !- Handle
  Roof Membrane,                          !- Name
  VeryRough,                              !- Roughness
  0.0095,                                 !- Thickness {m}
  0.16,                                   !- Conductivity {W/m-K}
  1121.29,                                !- Density {kg/m3}
  1460,                                   !- Specific Heat {J/kg-K}
  0.9,                                    !- Thermal Absorptance
  0.7,                                    !- Solar Absorptance
  0.7;                                    !- Visible Absorptance

OS:Material,
  {93094692-dffa-49c1-8abd-b5cdbc06bf80}, !- Handle
  Roof Insulation [18],                   !- Name
  MediumRough,                            !- Roughness
  0.1693,                                 !- Thickness {m}
  0.049,                                  !- Conductivity {W/m-K}
  265,                                    !- Density {kg/m3}
  836.800000000001,                       !- Specific Heat {J/kg-K}
  0.9,                                    !- Thermal Absorptance
  0.7,                                    !- Solar Absorptance
  0.7;                                    !- Visible Absorptance

OS:Material,
  {b7fca0b7-8188-4f05-a8e7-6d6aca888f9b}, !- Handle
  Metal Decking,                          !- Name
  MediumSmooth,                           !- Roughness
  0.0015,                                 !- Thickness {m}
  45.006,                                 !- Conductivity {W/m-K}
  7680,                                   !- Density {kg/m3}
  418.4,                                  !- Specific Heat {J/kg-K}
  0.9,                                    !- Thermal Absorptance
  0.7,                                    !- Solar Absorptance
  0.3;                                    !- Visible Absorptance

OS:Construction,
  {1ac07e40-9777-4189-9882-cba29499f9b7}, !- Handle
  ASHRAE 189.1-2009 ExtRoof IEAD ClimateZone 2-5, !- Name
  ,                                       !- Surface Rendering Name
  {0c9d1172-641d-421e-95d3-a02017540908}, !- Layer 1
  {1343db6a-a1f5-4d47-b666-86d1c77b91d4}, !- Layer 2
  {b7fca0b7-8188-4f05-a8e7-6d6aca888f9b}; !- Layer 3

OS:StandardsInformation:Construction,
  {95bd3399-bdcb-4dab-b179-8ec4276d3fa7}, !- Handle
  {1ac07e40-9777-4189-9882-cba29499f9b7}, !- Construction Name
  ExteriorRoof,                           !- Intended Surface Type
  IEAD;                                   !- Standards Construction Type

OS:Material,
  {1343db6a-a1f5-4d47-b666-86d1c77b91d4}, !- Handle
  Roof Insulation [21],                   !- Name
  MediumRough,                            !- Roughness
  0.2105,                                 !- Thickness {m}
  0.049,                                  !- Conductivity {W/m-K}
  265,                                    !- Density {kg/m3}
  836.800000000001,                       !- Specific Heat {J/kg-K}
  0.9,                                    !- Thermal Absorptance
  0.7,                                    !- Solar Absorptance
  0.7;                                    !- Visible Absorptance

OS:Construction,
  {ca9cd72e-c0f8-4c45-ba34-37e3ecb64411}, !- Handle
  ASHRAE 189.1-2009 ExtRoof IEAD ClimateZone 6, !- Name
  ,                                       !- Surface Rendering Name
  {0c9d1172-641d-421e-95d3-a02017540908}, !- Layer 1
  {83244944-e70a-4b3e-a738-68faf2835d8f}, !- Layer 2
  {b7fca0b7-8188-4f05-a8e7-6d6aca888f9b}; !- Layer 3

OS:StandardsInformation:Construction,
  {61b2eb40-211e-4a09-b2fa-fa80d913a565}, !- Handle
  {ca9cd72e-c0f8-4c45-ba34-37e3ecb64411}, !- Construction Name
  ExteriorRoof,                           !- Intended Surface Type
  IEAD;                                   !- Standards Construction Type

OS:Material,
  {83244944-e70a-4b3e-a738-68faf2835d8f}, !- Handle
  Roof Insulation [24],                   !- Name
  MediumRough,                            !- Roughness
  0.260100000000001,                      !- Thickness {m}
  0.049,                                  !- Conductivity {W/m-K}
  265,                                    !- Density {kg/m3}
  836.800000000001,                       !- Specific Heat {J/kg-K}
  0.9,                                    !- Thermal Absorptance
  0.7,                                    !- Solar Absorptance
  0.7;                                    !- Visible Absorptance

OS:Construction,
  {cef7e90c-ac1e-46b1-ae54-36708310e20e}, !- Handle
  ASHRAE 189.1-2009 ExtRoof IEAD ClimateZone 7-8, !- Name
  ,                                       !- Surface Rendering Name
  {0c9d1172-641d-421e-95d3-a02017540908}, !- Layer 1
  {315b02a6-782a-4aa0-8846-6c5677702b92}, !- Layer 2
  {b7fca0b7-8188-4f05-a8e7-6d6aca888f9b}; !- Layer 3

OS:StandardsInformation:Construction,
  {0e29aa0b-5c6a-4158-88a6-a65301d2c810}, !- Handle
  {cef7e90c-ac1e-46b1-ae54-36708310e20e}, !- Construction Name
  ExteriorRoof,                           !- Intended Surface Type
  IEAD;                                   !- Standards Construction Type

OS:Material,
  {315b02a6-782a-4aa0-8846-6c5677702b92}, !- Handle
  Roof Insulation [26],                   !- Name
  MediumRough,                            !- Roughness
  0.2941,                                 !- Thickness {m}
  0.049,                                  !- Conductivity {W/m-K}
  265,                                    !- Density {kg/m3}
  836.800000000001,                       !- Specific Heat {J/kg-K}
  0.9,                                    !- Thermal Absorptance
  0.7,                                    !- Solar Absorptance
  0.7;                                    !- Visible Absorptance

OS:Construction,
  {3522ad08-95da-4eb1-8537-8b312ecb7c6c}, !- Handle
  ASHRAE 189.1-2009 ExtRoof Metal ClimateZone 1, !- Name
  ,                                       !- Surface Rendering Name
  {42a985f8-c3da-4550-9d70-a65b327fd931}, !- Layer 1
  {2473254f-41f3-4310-ba74-6602e2b3665d}; !- Layer 2

OS:StandardsInformation:Construction,
  {df1ae8c1-8c80-4f42-a718-70733dea92d0}, !- Handle
  {3522ad08-95da-4eb1-8537-8b312ecb7c6c}, !- Construction Name
  ExteriorRoof,                           !- Intended Surface Type
  Metal;                                  !- Standards Construction Type

OS:Material,
  {42a985f8-c3da-4550-9d70-a65b327fd931}, !- Handle
  Metal Roofing,                          !- Name
  MediumSmooth,                           !- Roughness
  0.0015,                                 !- Thickness {m}
  45.006,                                 !- Conductivity {W/m-K}
  7680,                                   !- Density {kg/m3}
  418.4,                                  !- Specific Heat {J/kg-K}
  0.9,                                    !- Thermal Absorptance
  0.3,                                    !- Solar Absorptance
  0.3;                                    !- Visible Absorptance

OS:Material,
  {2473254f-41f3-4310-ba74-6602e2b3665d}, !- Handle
  Roof Insulation [19],                   !- Name
  MediumRough,                            !- Roughness
  0.1868,                                 !- Thickness {m}
  0.049,                                  !- Conductivity {W/m-K}
  265,                                    !- Density {kg/m3}
  836.800000000001,                       !- Specific Heat {J/kg-K}
  0.9,                                    !- Thermal Absorptance
  0.7,                                    !- Solar Absorptance
  0.7;                                    !- Visible Absorptance

OS:Construction,
  {d13027e5-18a0-49f1-beac-bfae0c6224cf}, !- Handle
  ASHRAE 189.1-2009 ExtRoof Metal ClimateZone 2-5, !- Name
  ,                                       !- Surface Rendering Name
  {42a985f8-c3da-4550-9d70-a65b327fd931}, !- Layer 1
  {b945e6e1-c157-4c5a-9adf-07b38020a943}; !- Layer 2

OS:StandardsInformation:Construction,
  {eaf52190-d334-41ac-8de7-824c4da7b591}, !- Handle
  {d13027e5-18a0-49f1-beac-bfae0c6224cf}, !- Construction Name
  ExteriorRoof,                           !- Intended Surface Type
  Metal;                                  !- Standards Construction Type

OS:Material,
  {b945e6e1-c157-4c5a-9adf-07b38020a943}, !- Handle
  Roof Insulation [22],                   !- Name
  MediumRough,                            !- Roughness
  0.2358,                                 !- Thickness {m}
  0.049,                                  !- Conductivity {W/m-K}
  265,                                    !- Density {kg/m3}
  836.800000000001,                       !- Specific Heat {J/kg-K}
  0.9,                                    !- Thermal Absorptance
  0.7,                                    !- Solar Absorptance
  0.7;                                    !- Visible Absorptance

OS:Construction,
  {eda635fd-74b3-4c4b-9d5a-ac649be754fa}, !- Handle
  ASHRAE 189.1-2009 ExtRoof Metal ClimateZone 6, !- Name
  ,                                       !- Surface Rendering Name
  {42a985f8-c3da-4550-9d70-a65b327fd931}, !- Layer 1
  {09da5d8b-6064-423a-a13a-e5bdac0303f7}; !- Layer 2

OS:StandardsInformation:Construction,
  {1ca795e1-bb91-4365-9c37-e9d5daccb3a9}, !- Handle
  {eda635fd-74b3-4c4b-9d5a-ac649be754fa}, !- Construction Name
  ExteriorRoof,                           !- Intended Surface Type
  Metal;                                  !- Standards Construction Type

OS:Material,
  {09da5d8b-6064-423a-a13a-e5bdac0303f7}, !- Handle
  Roof Insulation [25],                   !- Name
  MediumRough,                            !- Roughness
  0.263,                                  !- Thickness {m}
  0.049,                                  !- Conductivity {W/m-K}
  265,                                    !- Density {kg/m3}
  836.800000000001,                       !- Specific Heat {J/kg-K}
  0.9,                                    !- Thermal Absorptance
  0.7,                                    !- Solar Absorptance
  0.7;                                    !- Visible Absorptance

OS:Construction,
  {83a1458e-7c6f-4155-bd11-d4e18a8e0416}, !- Handle
  ASHRAE 189.1-2009 ExtRoof Metal ClimateZone 7-8, !- Name
  ,                                       !- Surface Rendering Name
  {42a985f8-c3da-4550-9d70-a65b327fd931}, !- Layer 1
  {29c5716f-c7f9-49ec-9be7-acc021ebb058}; !- Layer 2

OS:StandardsInformation:Construction,
  {fa19a567-9f84-44de-9719-f5efcd9a5040}, !- Handle
  {83a1458e-7c6f-4155-bd11-d4e18a8e0416}, !- Construction Name
  ExteriorRoof,                           !- Intended Surface Type
  Metal;                                  !- Standards Construction Type

OS:Material,
  {29c5716f-c7f9-49ec-9be7-acc021ebb058}, !- Handle
  Roof Insulation [27],                   !- Name
  MediumRough,                            !- Roughness
  0.297000000000001,                      !- Thickness {m}
  0.049,                                  !- Conductivity {W/m-K}
  265,                                    !- Density {kg/m3}
  836.800000000001,                       !- Specific Heat {J/kg-K}
  0.9,                                    !- Thermal Absorptance
  0.7,                                    !- Solar Absorptance
  0.7;                                    !- Visible Absorptance

OS:Construction,
  {8f0b1636-9663-4a23-99be-fc0206ab9b2a}, !- Handle
  ASHRAE 189.1-2009 ExtWall Mass ClimateZone 1, !- Name
  ,                                       !- Surface Rendering Name
  {5dc1313c-2145-461f-ba21-874ccedec988}, !- Layer 1
  {9f11c4ff-c970-4bad-8c84-d9446d9ce541}, !- Layer 2
  {6cddcebb-5296-4c88-9baf-c57a779803c1}, !- Layer 3
  {ec45c7af-5bc1-4233-b355-d3c152921332}; !- Layer 4

OS:StandardsInformation:Construction,
  {dd63e55c-cfbb-49b4-b681-885871ca5ad5}, !- Handle
  {8f0b1636-9663-4a23-99be-fc0206ab9b2a}, !- Construction Name
  ExteriorWall,                           !- Intended Surface Type
  Mass;                                   !- Standards Construction Type

OS:Material,
  {5dc1313c-2145-461f-ba21-874ccedec988}, !- Handle
  1IN Stucco,                             !- Name
  Smooth,                                 !- Roughness
  0.0253,                                 !- Thickness {m}
  0.691799999999999,                      !- Conductivity {W/m-K}
  1858,                                   !- Density {kg/m3}
  836.999999999999,                       !- Specific Heat {J/kg-K}
  0.9,                                    !- Thermal Absorptance
  0.92,                                   !- Solar Absorptance
  0.92;                                   !- Visible Absorptance

OS:Material,
  {9f11c4ff-c970-4bad-8c84-d9446d9ce541}, !- Handle
  8IN Concrete HW,                        !- Name
  MediumRough,                            !- Roughness
  0.2033,                                 !- Thickness {m}
  1.72959999999999,                       !- Conductivity {W/m-K}
  2242.99999999999,                       !- Density {kg/m3}
  836.999999999999,                       !- Specific Heat {J/kg-K}
  0.9,                                    !- Thermal Absorptance
  0.65,                                   !- Solar Absorptance
  0.65;                                   !- Visible Absorptance

OS:Material,
  {6cddcebb-5296-4c88-9baf-c57a779803c1}, !- Handle
  Wall Insulation [31],                   !- Name
  MediumRough,                            !- Roughness
  0.0337000000000001,                     !- Thickness {m}
  0.0432,                                 !- Conductivity {W/m-K}
  91,                                     !- Density {kg/m3}
  836.999999999999,                       !- Specific Heat {J/kg-K}
  0.9,                                    !- Thermal Absorptance
  0.5,                                    !- Solar Absorptance
  0.5;                                    !- Visible Absorptance

OS:Construction,
  {52fc086c-6e4b-45e3-9fc8-13d4eec618d3}, !- Handle
  ASHRAE 189.1-2009 ExtWall Mass ClimateZone 2, !- Name
  ,                                       !- Surface Rendering Name
  {5dc1313c-2145-461f-ba21-874ccedec988}, !- Layer 1
  {9f11c4ff-c970-4bad-8c84-d9446d9ce541}, !- Layer 2
  {46be123d-d236-46b1-a147-55e1611de672}, !- Layer 3
  {ec45c7af-5bc1-4233-b355-d3c152921332}; !- Layer 4

OS:StandardsInformation:Construction,
  {34df3daa-ce93-4873-9d1c-74b68fe4bb19}, !- Handle
  {52fc086c-6e4b-45e3-9fc8-13d4eec618d3}, !- Construction Name
  ExteriorWall,                           !- Intended Surface Type
  Mass;                                   !- Standards Construction Type

OS:Material,
  {46be123d-d236-46b1-a147-55e1611de672}, !- Handle
  Wall Insulation [35],                   !- Name
  MediumRough,                            !- Roughness
  0.0452,                                 !- Thickness {m}
  0.0432,                                 !- Conductivity {W/m-K}
  91,                                     !- Density {kg/m3}
  836.999999999999,                       !- Specific Heat {J/kg-K}
  0.9,                                    !- Thermal Absorptance
  0.5,                                    !- Solar Absorptance
  0.5;                                    !- Visible Absorptance

OS:Construction,
  {a18a026b-9e7e-4771-8bef-a7f148339e95}, !- Handle
  ASHRAE 189.1-2009 ExtWall Mass ClimateZone 3, !- Name
  ,                                       !- Surface Rendering Name
  {5dc1313c-2145-461f-ba21-874ccedec988}, !- Layer 1
  {9f11c4ff-c970-4bad-8c84-d9446d9ce541}, !- Layer 2
  {58318add-f682-4de3-a9d9-e94cd69785b3}, !- Layer 3
  {ec45c7af-5bc1-4233-b355-d3c152921332}; !- Layer 4

OS:StandardsInformation:Construction,
  {2e04e9ff-8c60-46ac-90c9-7e5c610fdfb8}, !- Handle
  {a18a026b-9e7e-4771-8bef-a7f148339e95}, !- Construction Name
  ExteriorWall,                           !- Intended Surface Type
  Mass;                                   !- Standards Construction Type

OS:Material,
  {58318add-f682-4de3-a9d9-e94cd69785b3}, !- Handle
  Wall Insulation [36],                   !- Name
  MediumRough,                            !- Roughness
  0.0565999999999999,                     !- Thickness {m}
  0.0432,                                 !- Conductivity {W/m-K}
  91,                                     !- Density {kg/m3}
  836.999999999999,                       !- Specific Heat {J/kg-K}
  0.9,                                    !- Thermal Absorptance
  0.5,                                    !- Solar Absorptance
  0.5;                                    !- Visible Absorptance

OS:Construction,
  {c11fe819-180c-4736-bf1d-03c7e647424a}, !- Handle
  ASHRAE 189.1-2009 ExtWall Mass ClimateZone 4, !- Name
  ,                                       !- Surface Rendering Name
  {5dc1313c-2145-461f-ba21-874ccedec988}, !- Layer 1
  {9f11c4ff-c970-4bad-8c84-d9446d9ce541}, !- Layer 2
  {6084ff51-a95f-4576-bf8e-13bc9fe040d1}, !- Layer 3
  {ec45c7af-5bc1-4233-b355-d3c152921332}; !- Layer 4

OS:StandardsInformation:Construction,
  {23d8b07f-0d4b-4bd9-8ba9-69c75a49f9dd}, !- Handle
  {c11fe819-180c-4736-bf1d-03c7e647424a}, !- Construction Name
  ExteriorWall,                           !- Intended Surface Type
  Mass;                                   !- Standards Construction Type

OS:Material,
  {6084ff51-a95f-4576-bf8e-13bc9fe040d1}, !- Handle
  Wall Insulation [37],                   !- Name
  MediumRough,                            !- Roughness
  0.0680999999999999,                     !- Thickness {m}
  0.0432,                                 !- Conductivity {W/m-K}
  91,                                     !- Density {kg/m3}
  836.999999999999,                       !- Specific Heat {J/kg-K}
  0.9,                                    !- Thermal Absorptance
  0.5,                                    !- Solar Absorptance
  0.5;                                    !- Visible Absorptance

OS:Construction,
  {a102447f-6286-469e-894b-b99189cf90f1}, !- Handle
  ASHRAE 189.1-2009 ExtWall Mass ClimateZone 5, !- Name
  ,                                       !- Surface Rendering Name
  {5dc1313c-2145-461f-ba21-874ccedec988}, !- Layer 1
  {9f11c4ff-c970-4bad-8c84-d9446d9ce541}, !- Layer 2
  {435caebd-f665-4d01-8b12-4b7b9a7d967b}, !- Layer 3
  {ec45c7af-5bc1-4233-b355-d3c152921332}; !- Layer 4

OS:StandardsInformation:Construction,
  {413bb7ef-c61a-42d9-adf0-f4a96c568ff3}, !- Handle
  {a102447f-6286-469e-894b-b99189cf90f1}, !- Construction Name
  ExteriorWall,                           !- Intended Surface Type
  Mass;                                   !- Standards Construction Type

OS:Material,
  {435caebd-f665-4d01-8b12-4b7b9a7d967b}, !- Handle
  Wall Insulation [40],                   !- Name
  MediumRough,                            !- Roughness
  0.0793999999999999,                     !- Thickness {m}
  0.0432,                                 !- Conductivity {W/m-K}
  91,                                     !- Density {kg/m3}
  836.999999999999,                       !- Specific Heat {J/kg-K}
  0.9,                                    !- Thermal Absorptance
  0.5,                                    !- Solar Absorptance
  0.5;                                    !- Visible Absorptance

OS:Construction,
  {cb410bdc-b054-4713-85fd-3f5e91ea4581}, !- Handle
  ASHRAE 189.1-2009 ExtWall Mass ClimateZone 6, !- Name
  ,                                       !- Surface Rendering Name
  {5dc1313c-2145-461f-ba21-874ccedec988}, !- Layer 1
  {9f11c4ff-c970-4bad-8c84-d9446d9ce541}, !- Layer 2
  {1e36075b-47a9-44d8-a355-24ce0e5ea70f}, !- Layer 3
  {ec45c7af-5bc1-4233-b355-d3c152921332}; !- Layer 4

OS:StandardsInformation:Construction,
  {429e306b-d642-4620-90cd-6c5913fa2247}, !- Handle
  {cb410bdc-b054-4713-85fd-3f5e91ea4581}, !- Construction Name
  ExteriorWall,                           !- Intended Surface Type
  Mass;                                   !- Standards Construction Type

OS:Material,
  {1e36075b-47a9-44d8-a355-24ce0e5ea70f}, !- Handle
  Wall Insulation [42],                   !- Name
  MediumRough,                            !- Roughness
  0.0913999999999999,                     !- Thickness {m}
  0.0432,                                 !- Conductivity {W/m-K}
  91,                                     !- Density {kg/m3}
  836.999999999999,                       !- Specific Heat {J/kg-K}
  0.9,                                    !- Thermal Absorptance
  0.5,                                    !- Solar Absorptance
  0.5;                                    !- Visible Absorptance

OS:Construction,
  {b077693c-5a9e-4095-80ba-59b930047535}, !- Handle
  ASHRAE 189.1-2009 ExtWall Mass ClimateZone 7-8, !- Name
  ,                                       !- Surface Rendering Name
  {5dc1313c-2145-461f-ba21-874ccedec988}, !- Layer 1
  {9f11c4ff-c970-4bad-8c84-d9446d9ce541}, !- Layer 2
  {02e30348-9267-4e0f-bdc9-3d84eb677592}, !- Layer 3
  {ec45c7af-5bc1-4233-b355-d3c152921332}; !- Layer 4

OS:StandardsInformation:Construction,
  {de3efc99-4283-4219-a630-8d766ab6f59e}, !- Handle
  {b077693c-5a9e-4095-80ba-59b930047535}, !- Construction Name
  ExteriorWall,                           !- Intended Surface Type
  Mass;                                   !- Standards Construction Type

OS:Material,
  {02e30348-9267-4e0f-bdc9-3d84eb677592}, !- Handle
  Wall Insulation [44],                   !- Name
  MediumRough,                            !- Roughness
  0.1104,                                 !- Thickness {m}
  0.0432,                                 !- Conductivity {W/m-K}
  91,                                     !- Density {kg/m3}
  836.999999999999,                       !- Specific Heat {J/kg-K}
  0.9,                                    !- Thermal Absorptance
  0.5,                                    !- Solar Absorptance
  0.5;                                    !- Visible Absorptance

OS:Construction,
  {e066715a-0718-46ac-a682-8befd8bc61c4}, !- Handle
  ASHRAE 189.1-2009 ExtWall Mass ClimateZone alt-res 1, !- Name
  ,                                       !- Surface Rendering Name
  {5dc1313c-2145-461f-ba21-874ccedec988}, !- Layer 1
  {9f11c4ff-c970-4bad-8c84-d9446d9ce541}, !- Layer 2
  {46be123d-d236-46b1-a147-55e1611de672}, !- Layer 3
  {ec45c7af-5bc1-4233-b355-d3c152921332}; !- Layer 4

OS:StandardsInformation:Construction,
  {322cd869-9f54-4ffe-af95-1daaf5d2a675}, !- Handle
  {e066715a-0718-46ac-a682-8befd8bc61c4}, !- Construction Name
  ExteriorWall,                           !- Intended Surface Type
  Mass;                                   !- Standards Construction Type

OS:Construction,
  {44f4ef6f-9c33-436f-9671-52c6ea17f1fc}, !- Handle
  ASHRAE 189.1-2009 ExtWall Mass ClimateZone alt-res 2, !- Name
  ,                                       !- Surface Rendering Name
  {5dc1313c-2145-461f-ba21-874ccedec988}, !- Layer 1
  {9f11c4ff-c970-4bad-8c84-d9446d9ce541}, !- Layer 2
  {58318add-f682-4de3-a9d9-e94cd69785b3}, !- Layer 3
  {ec45c7af-5bc1-4233-b355-d3c152921332}; !- Layer 4

OS:StandardsInformation:Construction,
  {b27c4455-002a-400d-896d-657e53de2b0b}, !- Handle
  {44f4ef6f-9c33-436f-9671-52c6ea17f1fc}, !- Construction Name
  ExteriorWall,                           !- Intended Surface Type
  Mass;                                   !- Standards Construction Type

OS:Construction,
  {f881422e-e32e-49de-b4b7-eb42ac1c0c04}, !- Handle
  ASHRAE 189.1-2009 ExtWall Mass ClimateZone alt-res 3, !- Name
  ,                                       !- Surface Rendering Name
  {5dc1313c-2145-461f-ba21-874ccedec988}, !- Layer 1
  {9f11c4ff-c970-4bad-8c84-d9446d9ce541}, !- Layer 2
  {6084ff51-a95f-4576-bf8e-13bc9fe040d1}, !- Layer 3
  {ec45c7af-5bc1-4233-b355-d3c152921332}; !- Layer 4

OS:StandardsInformation:Construction,
  {d75d58b4-14eb-474a-8638-01fa0284f531}, !- Handle
  {f881422e-e32e-49de-b4b7-eb42ac1c0c04}, !- Construction Name
  ExteriorWall,                           !- Intended Surface Type
  Mass;                                   !- Standards Construction Type

OS:Construction,
  {7ce35f75-4881-4d6d-925a-27b593dc2f0e}, !- Handle
  ASHRAE 189.1-2009 ExtWall Mass ClimateZone alt-res 4, !- Name
  ,                                       !- Surface Rendering Name
  {5dc1313c-2145-461f-ba21-874ccedec988}, !- Layer 1
  {9f11c4ff-c970-4bad-8c84-d9446d9ce541}, !- Layer 2
  {435caebd-f665-4d01-8b12-4b7b9a7d967b}, !- Layer 3
  {ec45c7af-5bc1-4233-b355-d3c152921332}; !- Layer 4

OS:StandardsInformation:Construction,
  {f748ebf5-caed-4fe3-bec9-8467afa9b0b2}, !- Handle
  {7ce35f75-4881-4d6d-925a-27b593dc2f0e}, !- Construction Name
  ExteriorWall,                           !- Intended Surface Type
  Mass;                                   !- Standards Construction Type

OS:Construction,
  {a240204a-55ac-40db-8e59-1fcc2b03b902}, !- Handle
  ASHRAE 189.1-2009 ExtWall Mass ClimateZone alt-res 5, !- Name
  ,                                       !- Surface Rendering Name
  {5dc1313c-2145-461f-ba21-874ccedec988}, !- Layer 1
  {9f11c4ff-c970-4bad-8c84-d9446d9ce541}, !- Layer 2
  {1e36075b-47a9-44d8-a355-24ce0e5ea70f}, !- Layer 3
  {ec45c7af-5bc1-4233-b355-d3c152921332}; !- Layer 4

OS:StandardsInformation:Construction,
  {54561a53-56bc-41d3-94c6-f962ce7f77f7}, !- Handle
  {a240204a-55ac-40db-8e59-1fcc2b03b902}, !- Construction Name
  ExteriorWall,                           !- Intended Surface Type
  Mass;                                   !- Standards Construction Type

OS:Construction,
  {fd19d5ec-f1c8-4056-aa1e-c494fa1f4f8c}, !- Handle
  ASHRAE 189.1-2009 ExtWall Mass ClimateZone alt-res 6, !- Name
  ,                                       !- Surface Rendering Name
  {5dc1313c-2145-461f-ba21-874ccedec988}, !- Layer 1
  {9f11c4ff-c970-4bad-8c84-d9446d9ce541}, !- Layer 2
  {02e30348-9267-4e0f-bdc9-3d84eb677592}, !- Layer 3
  {ec45c7af-5bc1-4233-b355-d3c152921332}; !- Layer 4

OS:StandardsInformation:Construction,
  {bd85d058-a79e-452b-9c6b-903a8ab84bf5}, !- Handle
  {fd19d5ec-f1c8-4056-aa1e-c494fa1f4f8c}, !- Construction Name
  ExteriorWall,                           !- Intended Surface Type
  Mass;                                   !- Standards Construction Type

OS:Construction,
  {7fa61656-f6c8-4e95-8f68-d8ee5001886d}, !- Handle
  ASHRAE 189.1-2009 ExtWall Mass ClimateZone alt-res 7, !- Name
  ,                                       !- Surface Rendering Name
  {5dc1313c-2145-461f-ba21-874ccedec988}, !- Layer 1
  {9f11c4ff-c970-4bad-8c84-d9446d9ce541}, !- Layer 2
  {02e30348-9267-4e0f-bdc9-3d84eb677592}, !- Layer 3
  {ec45c7af-5bc1-4233-b355-d3c152921332}; !- Layer 4

OS:StandardsInformation:Construction,
  {618cdf86-5bcd-4596-a1eb-7f7fada8c4df}, !- Handle
  {7fa61656-f6c8-4e95-8f68-d8ee5001886d}, !- Construction Name
  ExteriorWall,                           !- Intended Surface Type
  Mass;                                   !- Standards Construction Type

OS:Construction,
  {fcf4e67a-4cce-467f-bc73-223b5087b558}, !- Handle
  ASHRAE 189.1-2009 ExtWall Mass ClimateZone alt-res 8, !- Name