
OS:Version,
  {fe3bdf90-c079-4f53-93d4-7ceb80e8f249}, !- Handle
  1.1.2;                                  !- Version Identifier

OS:Schedule:Constant,
  {d6a63600-2982-4a7d-89fd-dfa396417fb1}, !- Handle
  Always On Discrete,                     !- Name
  {d0feaa5e-e5db-41ce-9126-a476f4a6f94c}, !- Schedule Type Limits Name
  1;                                      !- Value

OS:ScheduleTypeLimits,
  {d0feaa5e-e5db-41ce-9126-a476f4a6f94c}, !- Handle
  Always On Discrete Limits,              !- Name
  0,                                      !- Lower Limit Value {BasedOnField A4}
  1,                                      !- Upper Limit Value {BasedOnField A4}
  Discrete,                               !- Numeric Type
  Availability;                           !- Unit Type

OS:Building,
  {0c0a122b-8979-46fd-b17d-426a1e71ff7a}, ! Handle
  Quick Service Restaurant,               ! Name
  ,                                       ! Building Type
  -0,                                     ! North Axis
  ,                                       ! Nominal Floor to Floor Height
  {7a471b02-5ee8-454c-99cc-f00706ce4d75}, ! Space Type Name
  {21425d6c-fa9c-4c14-9b5a-cb93c825978d}, ! Default Construction Set Name
  ;                                       ! Default Schedule Set Name

OS:Construction,
  {0347a7cc-ee44-4da9-8ebd-2d950660ebd0}, ! Handle
  000 AtticRoof ClimateZone 1-8,          ! Name
  {3bf2c2c3-fe26-4f1b-aa4a-47afd82d456a}, ! Surface Rendering Name
  {505b8763-df7f-4d1c-9684-1f125c26144f}, ! Layer 1
  {5318443b-1837-4d54-9186-960cf0797c8c}; ! Layer 2

OS:Construction,
  {f178043e-a939-401b-9302-b1e855472325}, ! Handle
  000 ExtSlabCarpet 4in ClimateZone 1-8,  ! Name
  {8517a163-58a5-4fae-b080-9331b843024f}, ! Surface Rendering Name
  {c032b1ba-c1a1-4820-a81d-55ce076c8464}, ! Layer 1
  {517830a9-67fb-46b8-94d8-f3254e95ed8f}; ! Layer 2

OS:Construction,
  {58b7e414-d017-4230-ae92-0e70d431d97a}, ! Handle
  000 ExtSlabCarpet 8in ClimateZone 1-8,  ! Name
  {3939b215-5d76-4360-826b-c769e594a98a}, ! Surface Rendering Name
  {a8da5d0a-a128-4986-8eca-fd6dc5deffa4}, ! Layer 1
  {517830a9-67fb-46b8-94d8-f3254e95ed8f}; ! Layer 2

OS:Construction,
  {233bdd9b-17ff-48fb-a617-5f888fca39f6}, ! Handle
  000 ExtSlab 4in ClimateZone 1-8,        ! Name
  {708f1720-c4fc-466b-b0c8-51d42ad4b73b}, ! Surface Rendering Name
  {c032b1ba-c1a1-4820-a81d-55ce076c8464}; ! Layer 1

OS:Construction,
  {96853441-54b5-4829-a13e-f0a09b8d6fd4}, ! Handle
  000 ExtSlab 8in ClimateZone 1-8,        ! Name
  {8c2321b8-d5be-4eb0-80ac-bcd495d84a79}, ! Surface Rendering Name
  {a8da5d0a-a128-4986-8eca-fd6dc5deffa4}; ! Layer 1

OS:Construction,
  {cdc84008-f12b-4d0f-bfef-0de95763ba96}, ! Handle
  000 Exterior Door,                      ! Name
  {2bd09fb2-ea2b-4d80-8417-d599c0b6bbc7}, ! Surface Rendering Name
  {c3fa732e-911d-45d7-a2a1-32e07b03d676}, ! Layer 1
  {dc1732fa-5702-4082-9ca1-b0e6740a1e74}; ! Layer 2

OS:Construction,
  {0e2a3099-07ac-4410-8911-6ad5c96aabf3}, ! Handle
  000 Exterior Floor,                     ! Name
  {467d9c07-7a61-4496-b60d-b34f49e59f63}, ! Surface Rendering Name
  {d1dd0d86-f061-4b22-9052-a71eb5f36769}, ! Layer 1
  {13457ad1-2dc5-423f-828b-a05a89e7d6dc}; ! Layer 2

OS:Construction,
  {ed9bd9d6-e648-4954-9499-7dbc21c5d3d3}, ! Handle
  000 Exterior Roof,                      ! Name
  {c44b9963-372a-438e-9d8a-68beeae40d02}, ! Surface Rendering Name
  {1a080004-4f55-4e78-8380-fae0fc5f48ff}, ! Layer 1
  {07b4ae61-1a20-460d-b764-127e2840a4b0}, ! Layer 2
  {5886a327-0f7f-4448-b774-8577a5fd271e}; ! Layer 3

OS:Construction,
  {d89cd795-be9a-473e-b9d1-45e120e30c6d}, ! Handle
  000 Exterior Wall,                      ! Name
  {9d657d59-a37d-42b7-87f0-4c0830d94d3b}, ! Surface Rendering Name
  {b49e2463-d2da-4f77-94d9-50f0ddfd9a87}, ! Layer 1
  {13457ad1-2dc5-423f-828b-a05a89e7d6dc}, ! Layer 2
  {d1dd0d86-f061-4b22-9052-a71eb5f36769}, ! Layer 3
  {f0e82799-82f8-47eb-8c41-44a7ba961143}, ! Layer 4
  {9621dcc6-a1e4-44e4-a9a8-d2eb1b606d02}; ! Layer 5

OS:Construction,
  {fb6b4396-3a06-4140-ae27-3a67b33964ee}, ! Handle
  000 Exterior Window,                    ! Name
  {e272affb-48bd-4177-b084-2b30c300d714}, ! Surface Rendering Name
  {8c6aca67-3b4d-4a52-9755-167aaffc60f4}, ! Layer 1
  {618353e1-2681-4b2d-8d82-0cde84732c17}, ! Layer 2
  {8c6aca67-3b4d-4a52-9755-167aaffc60f4}; ! Layer 3

OS:Construction,
  {23cb1053-63ba-49bb-a71e-1cfc19dd2590}, ! Handle
  000 Interior Ceiling,                   ! Name
  {62fe94eb-55e7-45fe-a1ed-7410cfad76d2}, ! Surface Rendering Name
  {1a080004-4f55-4e78-8380-fae0fc5f48ff}, ! Layer 1
  {07b4ae61-1a20-460d-b764-127e2840a4b0}, ! Layer 2
  {5886a327-0f7f-4448-b774-8577a5fd271e}; ! Layer 3

OS:Construction,
  {5f85c970-41b8-4cf0-8e6d-bfa231aa1425}, ! Handle
  000 Interior Door,                      ! Name
  {30e50d9d-164d-4c1e-a1b3-ae17e6a55723}, ! Surface Rendering Name
  {06fc4ec3-47f1-4552-99ac-c8b39350cf8d}; ! Layer 1

OS:Construction,
  {19fa1943-3694-43dc-918b-d317ad7f0570}, ! Handle
  000 Interior Floor,                     ! Name
  {b57514bb-35e0-4cee-881b-3858a0ca629b}, ! Surface Rendering Name
  {5886a327-0f7f-4448-b774-8577a5fd271e}, ! Layer 1
  {07b4ae61-1a20-460d-b764-127e2840a4b0}, ! Layer 2
  {1a080004-4f55-4e78-8380-fae0fc5f48ff}; ! Layer 3

OS:Construction,
  {31a7861a-544a-465e-bb4e-6ac94a53bbe0}, ! Handle
  000 Interior Partition,                 ! Name
  {010463a0-cac7-44d3-b1df-bb91bda0a6ea}, ! Surface Rendering Name
  {06fc4ec3-47f1-4552-99ac-c8b39350cf8d}; ! Layer 1

OS:Construction,
  {7972c9b0-9ff1-4eb1-a016-1942eb153fad}, ! Handle
  000 Interior Wall,                      ! Name
  {a37f0188-7258-4107-9878-8d195dd2f289}, ! Surface Rendering Name
  {9621dcc6-a1e4-44e4-a9a8-d2eb1b606d02}, ! Layer 1
  {f0e82799-82f8-47eb-8c41-44a7ba961143}, ! Layer 2
  {9621dcc6-a1e4-44e4-a9a8-d2eb1b606d02}; ! Layer 3

OS:Construction,
  {56ae9725-8718-42e6-bb0d-c9f16f2781d9}, ! Handle
  000 Interior Window,                    ! Name
  {d4e1e38b-473d-4db2-9f06-9ebaff3a902b}, ! Surface Rendering Name
  {8c6aca67-3b4d-4a52-9755-167aaffc60f4}; ! Layer 1

OS:Construction,
  {b6ed31ad-11b2-4228-ad50-c8fdbf33c567}, ! Handle
  ASHRAE 189.1-2009 AtticFloor ClimateZone 1-8, ! Name
  {622133de-f383-4661-bf96-48376707bd3e}, ! Surface Rendering Name
  {120764e0-6171-4195-91da-3c368f58334c}, ! Layer 1
  {462bd390-7bae-49c6-86b9-074393ecc103}, ! Layer 2
  {120764e0-6171-4195-91da-3c368f58334c}; ! Layer 3

OS:Construction,
  {19cc8ac8-cc13-4a03-a523-e1cfc0492fa1}, ! Handle
  ASHRAE 189.1-2009 ExtRoof IEAD ClimateZone 1, ! Name
  {b0c9e13d-21b2-4ee5-b6f9-a1b0fc60f58f}, ! Surface Rendering Name
  {505b8763-df7f-4d1c-9684-1f125c26144f}, ! Layer 1
  {b74e0414-c2a7-49a7-9dad-4d795caf2e72}, ! Layer 2
  {5318443b-1837-4d54-9186-960cf0797c8c}; ! Layer 3

OS:Construction,
  {78138257-93dc-4a6b-8300-5dba68ad9e97}, ! Handle
  ASHRAE 189.1-2009 ExtRoof IEAD ClimateZone 2-5, ! Name
  {8ac06cfe-cafc-4a35-a46f-3c208a86d409}, ! Surface Rendering Name
  {505b8763-df7f-4d1c-9684-1f125c26144f}, ! Layer 1
  {dac55bd1-7040-43a8-aec7-68584a4d04e6}, ! Layer 2
  {5318443b-1837-4d54-9186-960cf0797c8c}; ! Layer 3

OS:Construction,
  {960da273-73a7-4a4b-aee6-733acb6db229}, ! Handle
  ASHRAE 189.1-2009 ExtRoof IEAD ClimateZone 6, ! Name
  {a989cac3-3086-46be-b216-d825a6eeef8a}, ! Surface Rendering Name
  {505b8763-df7f-4d1c-9684-1f125c26144f}, ! Layer 1
  {52f5898b-7ffb-4cd9-8416-3322e6f65bcc}, ! Layer 2
  {5318443b-1837-4d54-9186-960cf0797c8c}; ! Layer 3

OS:Construction,
  {ba86a47f-1c6c-4209-809b-a44a8bed9587}, ! Handle
  ASHRAE 189.1-2009 ExtRoof IEAD ClimateZone 7-8, ! Name
  {6b81e628-03e9-4935-a551-9e01826679f7}, ! Surface Rendering Name
  {505b8763-df7f-4d1c-9684-1f125c26144f}, ! Layer 1
  {8f202766-dffc-4afe-840f-5cb600f89505}, ! Layer 2
  {5318443b-1837-4d54-9186-960cf0797c8c}; ! Layer 3

OS:Construction,
  {e278e404-3f17-4a44-94cc-e7e4ee231c0c}, ! Handle
  ASHRAE 189.1-2009 ExtRoof Metal ClimateZone 1, ! Name
  {f733c538-ea87-4fe2-899c-a3bbf2d8efc6}, ! Surface Rendering Name
  {51f92e23-6af8-4dd7-98c4-c59fbb247af0}, ! Layer 1
  {42b4019f-97de-49c9-a990-0ffe23ae86a1}; ! Layer 2

OS:Construction,
  {f06b2e1e-2259-4b63-82e7-f758e14a27ba}, ! Handle
  ASHRAE 189.1-2009 ExtRoof Metal ClimateZone 2-5, ! Name
  {b46424f8-90c9-4a65-ace3-3d3827faa546}, ! Surface Rendering Name
  {51f92e23-6af8-4dd7-98c4-c59fbb247af0}, ! Layer 1
  {0b23bdc1-646a-4765-a54a-86bb1bbefb99}; ! Layer 2

OS:Construction,
  {34d16361-6096-4acc-b412-6d63f9745750}, ! Handle
  ASHRAE 189.1-2009 ExtRoof Metal ClimateZone 6, ! Name
  {13079f86-a381-4813-93c6-b267ff658db1}, ! Surface Rendering Name
  {51f92e23-6af8-4dd7-98c4-c59fbb247af0}, ! Layer 1
  {2c860445-e5c1-4627-ae45-716f13a115d9}; ! Layer 2

OS:Construction,
  {b5d164f1-e475-4b53-8ec8-00bf25f880f4}, ! Handle
  ASHRAE 189.1-2009 ExtRoof Metal ClimateZone 7-8, ! Name
  {10c292d3-7768-48b3-bee7-1865b998cd11}, ! Surface Rendering Name
  {51f92e23-6af8-4dd7-98c4-c59fbb247af0}, ! Layer 1
  {e6e599c0-a68f-4fa2-8910-7ff827988ddf}; ! Layer 2

OS:Construction,
  {7ac92a73-5dd2-4ae2-8180-888c8a295c93}, ! Handle
  ASHRAE 189.1-2009 ExtWall Mass ClimateZone 1, ! Name
  {b3ca87fa-f749-41c9-bd2d-52747495f966}, ! Surface Rendering Name
  {2a9ef146-3b9f-42f7-80f4-6c093571e336}, ! Layer 1
  {0f45de03-e4a9-46d3-adc3-7d25ba77a5cf}, ! Layer 2
  {4d9e903b-f6f8-4a6a-85ba-1a35fbd80541}, ! Layer 3
  {120764e0-6171-4195-91da-3c368f58334c}; ! Layer 4

OS:Construction,
  {b9669863-9338-41fe-8b2d-75804db6cc42}, ! Handle
  ASHRAE 189.1-2009 ExtWall Mass ClimateZone 2, ! Name
  {c8de32bf-83e4-4f97-8fe1-7e1d1f400353}, ! Surface Rendering Name
  {2a9ef146-3b9f-42f7-80f4-6c093571e336}, ! Layer 1
  {0f45de03-e4a9-46d3-adc3-7d25ba77a5cf}, ! Layer 2
  {ed862522-40ad-4f78-9f40-e6f61da9923a}, ! Layer 3
  {120764e0-6171-4195-91da-3c368f58334c}; ! Layer 4

OS:Construction,
  {e88c6949-2a9a-4de5-b5c0-17684500b265}, ! Handle
  ASHRAE 189.1-2009 ExtWall Mass ClimateZone 3, ! Name
  {965cf16c-fac2-4205-81d1-9e1f40844158}, ! Surface Rendering Name
  {2a9ef146-3b9f-42f7-80f4-6c093571e336}, ! Layer 1
  {0f45de03-e4a9-46d3-adc3-7d25ba77a5cf}, ! Layer 2
  {ba2fdde9-4879-4555-a2a5-f85f7c5b9341}, ! Layer 3
  {120764e0-6171-4195-91da-3c368f58334c}; ! Layer 4

OS:Construction,
  {ece72195-4fdb-4c9d-a3db-727059c822f5}, ! Handle
  ASHRAE 189.1-2009 ExtWall Mass ClimateZone 4, ! Name
  {3ac9d750-8653-416f-baa5-b45ab368a9dc}, ! Surface Rendering Name
  {2a9ef146-3b9f-42f7-80f4-6c093571e336}, ! Layer 1
  {0f45de03-e4a9-46d3-adc3-7d25ba77a5cf}, ! Layer 2
  {e9133906-69c5-4fb2-9d58-dc6d9781e0bb}, ! Layer 3
  {120764e0-6171-4195-91da-3c368f58334c}; ! Layer 4

OS:Construction,
  {46099b78-bfde-445e-b55d-63886b50781c}, ! Handle
  ASHRAE 189.1-2009 ExtWall Mass ClimateZone 5, ! Name
  {9b688638-59f8-4368-a46a-a758b72ce16e}, ! Surface Rendering Name
  {2a9ef146-3b9f-42f7-80f4-6c093571e336}, ! Layer 1
  {0f45de03-e4a9-46d3-adc3-7d25ba77a5cf}, ! Layer 2
  {5bdbdc49-2bf5-4a6b-aef3-9e092ec32083}, ! Layer 3
  {120764e0-6171-4195-91da-3c368f58334c}; ! Layer 4

OS:Construction,
  {1434c41c-97f0-463f-98fa-bb3b6ca525a1}, ! Handle
  ASHRAE 189.1-2009 ExtWall Mass ClimateZone 6, ! Name
  {1fdd97af-c6a3-4f95-a620-41629e1b3861}, ! Surface Rendering Name
  {2a9ef146-3b9f-42f7-80f4-6c093571e336}, ! Layer 1
  {0f45de03-e4a9-46d3-adc3-7d25ba77a5cf}, ! Layer 2
  {7b754ae9-c26c-4abf-ac92-358a8e877534}, ! Layer 3
  {120764e0-6171-4195-91da-3c368f58334c}; ! Layer 4

OS:Construction,
  {dd9cef69-1907-404a-8737-7f63e860a1f4}, ! Handle
  ASHRAE 189.1-2009 ExtWall Mass ClimateZone 7-8, ! Name
  {1737f828-6428-45f3-a5c2-c9eb65e1554d}, ! Surface Rendering Name
  {2a9ef146-3b9f-42f7-80f4-6c093571e336}, ! Layer 1
  {0f45de03-e4a9-46d3-adc3-7d25ba77a5cf}, ! Layer 2
  {2b76a4ba-a128-45e4-8e6a-9d51ba505e64}, ! Layer 3
  {120764e0-6171-4195-91da-3c368f58334c}; ! Layer 4

OS:Construction,
  {96aa1d9f-a514-4655-9b09-2782ce2f5f15}, ! Handle
  ASHRAE 189.1-2009 ExtWall Mass ClimateZone alt-res 1, ! Name
  {595d66bf-c8c9-4dbb-8e12-0456f0172eae}, ! Surface Rendering Name
  {2a9ef146-3b9f-42f7-80f4-6c093571e336}, ! Layer 1
  {0f45de03-e4a9-46d3-adc3-7d25ba77a5cf}, ! Layer 2
  {ed862522-40ad-4f78-9f40-e6f61da9923a}, ! Layer 3
  {120764e0-6171-4195-91da-3c368f58334c}; ! Layer 4

OS:Construction,
  {d1927083-1a10-4b23-979f-50c3577b976d}, ! Handle
  ASHRAE 189.1-2009 ExtWall Mass ClimateZone alt-res 2, ! Name
  {41f0d008-82c5-4088-a4e9-e47254c7ccb5}, ! Surface Rendering Name
  {2a9ef146-3b9f-42f7-80f4-6c093571e336}, ! Layer 1
  {0f45de03-e4a9-46d3-adc3-7d25ba77a5cf}, ! Layer 2
  {ba2fdde9-4879-4555-a2a5-f85f7c5b9341}, ! Layer 3
  {120764e0-6171-4195-91da-3c368f58334c}; ! Layer 4

OS:Construction,
  {a3205336-26db-48ae-b977-dddc8e149dfa}, ! Handle
  ASHRAE 189.1-2009 ExtWall Mass ClimateZone alt-res 3, ! Name
  {63f0b31d-4b90-43a8-9ea6-879c0ede6fa2}, ! Surface Rendering Name
  {2a9ef146-3b9f-42f7-80f4-6c093571e336}, ! Layer 1
  {0f45de03-e4a9-46d3-adc3-7d25ba77a5cf}, ! Layer 2
  {e9133906-69c5-4fb2-9d58-dc6d9781e0bb}, ! Layer 3
  {120764e0-6171-4195-91da-3c368f58334c}; ! Layer 4

OS:Construction,
  {7010d1a4-f2e3-4535-a510-0cdab68ffad7}, ! Handle
  ASHRAE 189.1-2009 ExtWall Mass ClimateZone alt-res 4, ! Name
  {a226a7c1-8014-4158-b9fd-0d28d7b60850}, ! Surface Rendering Name
  {2a9ef146-3b9f-42f7-80f4-6c093571e336}, ! Layer 1
  {0f45de03-e4a9-46d3-adc3-7d25ba77a5cf}, ! Layer 2
  {5bdbdc49-2bf5-4a6b-aef3-9e092ec32083}, ! Layer 3
  {120764e0-6171-4195-91da-3c368f58334c}; ! Layer 4

OS:Construction,
  {5cb83293-c3ac-4579-ac4b-8ee4028a76ba}, ! Handle
  ASHRAE 189.1-2009 ExtWall Mass ClimateZone alt-res 5, ! Name
  {b125e74e-4eeb-47aa-87bb-a3675021759b}, ! Surface Rendering Name
  {2a9ef146-3b9f-42f7-80f4-6c093571e336}, ! Layer 1
  {0f45de03-e4a9-46d3-adc3-7d25ba77a5cf}, ! Layer 2
  {7b754ae9-c26c-4abf-ac92-358a8e877534}, ! Layer 3
  {120764e0-6171-4195-91da-3c368f58334c}; ! Layer 4

OS:Construction,
  {09c867bf-a743-4805-8161-80cbf741789b}, ! Handle
  ASHRAE 189.1-2009 ExtWall Mass ClimateZone alt-res 6, ! Name
  {20ff869e-1aa9-403e-809f-0d57d882dde0}, ! Surface Rendering Name
  {2a9ef146-3b9f-42f7-80f4-6c093571e336}, ! Layer 1
  {0f45de03-e4a9-46d3-adc3-7d25ba77a5cf}, ! Layer 2
  {2b76a4ba-a128-45e4-8e6a-9d51ba505e64}, ! Layer 3
  {120764e0-6171-4195-91da-3c368f58334c}; ! Layer 4

OS:Construction,
  {8b128403-9930-4bd1-80ae-fb544b226ebe}, ! Handle
  ASHRAE 189.1-2009 ExtWall Mass ClimateZone alt-res 7, ! Name
  {d9c555d9-0b15-43fe-a158-541ad6705707}, ! Surface Rendering Name
  {2a9ef146-3b9f-42f7-80f4-6c093571e336}, ! Layer 1
  {0f45de03-e4a9-46d3-adc3-7d25ba77a5cf}, ! Layer 2
  {2b76a4ba-a128-45e4-8e6a-9d51ba505e64}, ! Layer 3
  {120764e0-6171-4195-91da-3c368f58334c}; ! Layer 4

OS:Construction,
  {5be96b3a-88ce-47a2-8646-856166732fc2}, ! Handle
  ASHRAE 189.1-2009 ExtWall Mass ClimateZone alt-res 8, ! Name
  {1a5e1810-d416-4569-a02a-34250f83e284}, ! Surface Rendering Name
  {2a9ef146-3b9f-42f7-80f4-6c093571e336}, ! Layer 1
  {0f45de03-e4a9-46d3-adc3-7d25ba77a5cf}, ! Layer 2
  {785c3d9b-ddc9-4ee5-baf1-a02ad4cdb8a0}, ! Layer 3
  {120764e0-6171-4195-91da-3c368f58334c}; ! Layer 4

OS:Construction,
  {f71594e8-9bc1-410c-bdf1-f2134cf7cb40}, ! Handle
  ASHRAE 189.1-2009 ExtWall Metal ClimateZone 1-3, ! Name
  {449adad2-990f-45a1-9392-87f2192a39d5}, ! Surface Rendering Name
  {a2d56665-56e4-41d0-ae3a-92fad033f45a}, ! Layer 1
  {7126d8a5-daec-405e-bcb3-9104299357cf}, ! Layer 2
  {120764e0-6171-4195-91da-3c368f58334c}; ! Layer 3

OS:Construction,
  {eb0af951-69ef-4b5a-8064-de38c754dd45}, ! Handle
  ASHRAE 189.1-2009 ExtWall Metal ClimateZone 4-8, ! Name
  {6e7a69b4-43f2-42c5-8a7a-38edbb4f34c6}, ! Surface Rendering Name
  {a2d56665-56e4-41d0-ae3a-92fad033f45a}, ! Layer 1
  {b5a13cba-b164-4bb7-b72d-c5e334a0668a}, ! Layer 2
  {120764e0-6171-4195-91da-3c368f58334c}; ! Layer 3

OS:Construction,
  {87a15ffd-b0cb-45a9-a9a8-ce05022393e5}, ! Handle
  ASHRAE 189.1-2009 ExtWall SteelFrame ClimateZone 1-3, ! Name
  {1e85bd46-ad4f-4f32-afc8-9374f10acb84}, ! Surface Rendering Name
  {a64da8db-4ca9-4d34-9803-14ff728edbf3}, ! Layer 1
  {4e48dc57-d166-44d4-8cff-1c79953e94cf}, ! Layer 2
  {120764e0-6171-4195-91da-3c368f58334c}; ! Layer 3

OS:Construction,
  {e3fe433f-7bb6-4f9a-9901-90d2f5dc284c}, ! Handle
  ASHRAE 189.1-2009 ExtWall SteelFrame ClimateZone 4-8, ! Name
  {f1946523-1321-4688-8f17-0331b1bfaee9}, ! Surface Rendering Name
  {a64da8db-4ca9-4d34-9803-14ff728edbf3}, ! Layer 1
  {02d30892-41da-46c8-bab5-3b85c9cb101b}, ! Layer 2
  {120764e0-6171-4195-91da-3c368f58334c}; ! Layer 3

OS:Construction,
  {69cfbeb0-abeb-4b5d-bbd7-50d3f6bab47b}, ! Handle
  ASHRAE 189.1-2009 ExtWall WoodFrame ClimateZone 1-4, ! Name
  {d7a49650-3314-4843-9a8a-98248f4c7e68}, ! Surface Rendering Name
  {1ab019e3-8579-422d-98b4-7d705640bae3}, ! Layer 1
  {31d51c7b-6860-49d7-b3e5-cdbaf8d0879b}, ! Layer 2
  {120764e0-6171-4195-91da-3c368f58334c}; ! Layer 3

OS:Construction,
  {be95d018-d596-4aad-a12d-321e24049c15}, ! Handle
  ASHRAE 189.1-2009 ExtWall WoodFrame ClimateZone 5, ! Name
  {f880bd2c-b721-4bc7-b45e-6b51af4f2ff4}, ! Surface Rendering Name
  {1ab019e3-8579-422d-98b4-7d705640bae3}, ! Layer 1
  {66308066-f516-4abb-85f6-60eb825f3c02}, ! Layer 2
  {120764e0-6171-4195-91da-3c368f58334c}; ! Layer 3

OS:Construction,
  {a5ac59e1-48c0-4ffc-87f3-577479f1875c}, ! Handle
  ASHRAE 189.1-2009 ExtWall WoodFrame ClimateZone 6-8, ! Name
  {95fcc37c-dd40-4b05-b96f-08ce6cdacf36}, ! Surface Rendering Name
  {1ab019e3-8579-422d-98b4-7d705640bae3}, ! Layer 1
  {2fc48500-1c2a-4bed-a3e2-2956d9bfb504}, ! Layer 2
  {120764e0-6171-4195-91da-3c368f58334c}; ! Layer 3

OS:Construction,
  {f35510dd-b06f-40bb-a763-2fa894c8f433}, ! Handle
  ASHRAE 189.1-2009 ExtWindow ClimateZone 1, ! Name
  {66bf8573-d964-4e6e-907a-993e471f09eb}, ! Surface Rendering Name
  {881808d8-22f2-4745-af85-da625d6f641d}; ! Layer 1

OS:Construction,
  {01c83c9b-963f-42ab-9708-11c017a6f529}, ! Handle
  ASHRAE 189.1-2009 ExtWindow ClimateZone 2, ! Name
  {428d6bea-a4e5-444b-8dd1-26b5e59f1b68}, ! Surface Rendering Name
  {53f11014-d6bb-48ff-a15f-183b234e0d21}; ! Layer 1

OS:Construction,
  {562413b4-19ff-49ad-ab40-b37b931642fd}, ! Handle
  ASHRAE 189.1-2009 ExtWindow ClimateZone 3, ! Name
  {5600af3e-7555-404c-9bbd-f7cc2ee9876d}, ! Surface Rendering Name
  {8bac21f3-af57-46ca-a811-827f99f9d594}; ! Layer 1

OS:Construction,
  {c0e402af-9dce-4aab-8f37-b9ca5e3a20f6}, ! Handle
  ASHRAE 189.1-2009 ExtWindow ClimateZone 4-5, ! Name
  {c9e37792-78c6-487d-8967-b55fcce25274}, ! Surface Rendering Name
  {6efa7c3d-ca5a-4779-96bf-cdf10ea2a1f1}; ! Layer 1

OS:Construction,
  {49c18c1e-bd9d-4281-9e20-8de5ddb5551b}, ! Handle
  ASHRAE 189.1-2009 ExtWindow ClimateZone 6, ! Name
  {4869d65d-ca3d-495a-b61d-11f11fe048ea}, ! Surface Rendering Name
  {235f60e2-9c24-47f7-897a-36247bd99b54}; ! Layer 1

OS:Construction,
  {018da72f-7ebb-4eef-9b67-05bdd5166697}, ! Handle
  ASHRAE 189.1-2009 ExtWindow ClimateZone 7-8, ! Name
  {1ead60d7-64df-487e-82cb-6190d2f38239}, ! Surface Rendering Name
  {823c9f07-96f6-427f-ae14-dc3a36e21ce5}; ! Layer 1

OS:Construction,
  {1c141591-5d1c-4265-8f93-f1c7618b8384}, ! Handle
  ASHRAE 189.1-2009 ExtWindow ClimateZone alt-res 4-5, ! Name
  {89d3eba4-f9c9-4b34-b256-af7b53ab3ed0}, ! Surface Rendering Name
  {235f60e2-9c24-47f7-897a-36247bd99b54}; ! Layer 1

OS:Construction,
  {fb3388ae-a1d7-4aff-9592-244e93d43fdc}, ! Handle
  ASHRAE 90.1-2004 AtticFloor ClimateZone 1-5, ! Name
  {ea5a01be-f3b1-4622-8702-b5be2e061ca2}, ! Surface Rendering Name
  {120764e0-6171-4195-91da-3c368f58334c}, ! Layer 1
  {bbf0fed6-6236-43fd-958a-86569d8f58e9}, ! Layer 2
  {120764e0-6171-4195-91da-3c368f58334c}; ! Layer 3

OS:Construction,
  {3385caba-d4e1-4d49-a60f-f7f402089bb6}, ! Handle
  ASHRAE 90.1-2004 AtticFloor ClimateZone 6-8, ! Name
  {f5b395fc-14c3-4a79-8aad-c6de03b91ffb}, ! Surface Rendering Name
  {120764e0-6171-4195-91da-3c368f58334c}, ! Layer 1
  {1a8d56ef-4ed0-44f0-b092-1af73f194411}, ! Layer 2
  {120764e0-6171-4195-91da-3c368f58334c}; ! Layer 3

OS:Construction,
  {01fd6698-f459-4b98-bfb0-1f4cd6ca98df}, ! Handle
  ASHRAE 90.1-2004 ExtRoof IEAD ClimateZone 1-4, ! Name
  {901b58d3-a28c-43e1-ac18-30b2aeef29aa}, ! Surface Rendering Name
  {505b8763-df7f-4d1c-9684-1f125c26144f}, ! Layer 1
  {da8c06e5-fa50-4457-85c8-e0b2946c375a}, ! Layer 2
  {5318443b-1837-4d54-9186-960cf0797c8c}; ! Layer 3

OS:Construction,
  {e3adc7f8-34a9-4d4d-8457-d7170c2564db}, ! Handle
  ASHRAE 90.1-2004 ExtRoof IEAD ClimateZone 5-6, ! Name
  {e7c32bbb-4e88-4e3e-bca2-d8e1b08cf662}, ! Surface Rendering Name
  {505b8763-df7f-4d1c-9684-1f125c26144f}, ! Layer 1
  {af496148-92af-4920-808f-3371d89e12c9}, ! Layer 2
  {5318443b-1837-4d54-9186-960cf0797c8c}; ! Layer 3

OS:Construction,
  {05fa14b1-ea07-4339-9108-de7e5ce03dee}, ! Handle
  ASHRAE 90.1-2004 ExtRoof IEAD ClimateZone 7, ! Name
  {84e7b29e-cd85-4508-a3f3-7333d66a1627}, ! Surface Rendering Name
  {505b8763-df7f-4d1c-9684-1f125c26144f}, ! Layer 1
  {da8c06e5-fa50-4457-85c8-e0b2946c375a}, ! Layer 2
  {5318443b-1837-4d54-9186-960cf0797c8c}; ! Layer 3

OS:Construction,
  {10a7f923-5d62-457a-9320-9ecae0a17189}, ! Handle
  ASHRAE 90.1-2004 ExtRoof IEAD ClimateZone 8, ! Name
  {0592d37f-5d86-4e65-8d6f-9a227fba1359}, ! Surface Rendering Name
  {505b8763-df7f-4d1c-9684-1f125c26144f}, ! Layer 1
  {a8bf1e87-0f97-452a-8dfc-ac79a7656186}, ! Layer 2
  {5318443b-1837-4d54-9186-960cf0797c8c}; ! Layer 3

OS:Construction,
  {be98842a-507b-46b3-a2f6-6f0df999223a}, ! Handle
  ASHRAE 90.1-2004 ExtRoof Metal ClimateZone 1, ! Name
  {6c95bde4-efdc-4b7d-9eae-a3a7ad3ea112}, ! Surface Rendering Name
  {51f92e23-6af8-4dd7-98c4-c59fbb247af0}; ! Layer 1

OS:Construction,
  {16013cf1-31f0-48c0-b06e-901961a5ccb8}, ! Handle
  ASHRAE 90.1-2004 ExtRoof Metal ClimateZone 2, ! Name
  {8108da69-d97e-4555-b4aa-005b1aa3d597}, ! Surface Rendering Name
  {51f92e23-6af8-4dd7-98c4-c59fbb247af0}, ! Layer 1
  {af18ccd9-5d2f-41f6-b6d2-d7655ba9fc4b}; ! Layer 2

OS:Construction,
  {74051a76-765f-42cd-876b-ee2d7603d87a}, ! Handle
  ASHRAE 90.1-2004 ExtRoof Metal ClimateZone 3-4, ! Name
  {753d5e3b-34a6-4c3d-8087-bd7b8eda2a6d}, ! Surface Rendering Name
  {51f92e23-6af8-4dd7-98c4-c59fbb247af0}, ! Layer 1
  {c7b859cd-282a-402b-b47b-a96075983ed2}; ! Layer 2

OS:Construction,
  {6abcff05-35ba-44b1-b30f-b6090b08b5cd}, ! Handle
  ASHRAE 90.1-2004 ExtRoof Metal ClimateZone 5-6, ! Name
  {c130f09d-8376-4826-939b-76255c9157f9}, ! Surface Rendering Name
  {51f92e23-6af8-4dd7-98c4-c59fbb247af0}, ! Layer 1
  {04463d0b-2d1d-4d12-9e95-159616eb77ab}; ! Layer 2

OS:Construction,
  {8c032ecb-a1ed-479b-bc54-77c97174ed47}, ! Handle
  ASHRAE 90.1-2004 ExtRoof Metal ClimateZone 7, ! Name
  {4add5e77-4ab2-43e0-91f7-9380a02b6520}, ! Surface Rendering Name
  {51f92e23-6af8-4dd7-98c4-c59fbb247af0}, ! Layer 1
  {c7b859cd-282a-402b-b47b-a96075983ed2}; ! Layer 2

OS:Construction,
  {2d68b68f-269f-44d6-ab0b-e04dc6442b9d}, ! Handle
  ASHRAE 90.1-2004 ExtRoof Metal ClimateZone 8, ! Name
  {19a6da7f-d5de-4fae-85b4-23ca46af5678}, ! Surface Rendering Name
  {51f92e23-6af8-4dd7-98c4-c59fbb247af0}, ! Layer 1
  {209a9213-6481-4a92-98af-ef82dc1192e9}; ! Layer 2

OS:Construction,
  {087f9a5e-3c50-43b0-bd35-863cb6ab473a}, ! Handle
  ASHRAE 90.1-2004 ExtWall Mass ClimateZone 1-2, ! Name
  {37bb7938-e42b-4970-a5cb-3644cb6f79ba}, ! Surface Rendering Name
  {2a9ef146-3b9f-42f7-80f4-6c093571e336}, ! Layer 1
  {e1c94108-2111-486c-85b6-5d0ab35b3d39}, ! Layer 2
  {120764e0-6171-4195-91da-3c368f58334c}; ! Layer 3

OS:Construction,
  {3f99503f-ba98-46fe-9edb-dbcb8cfc4bcd}, ! Handle
  ASHRAE 90.1-2004 ExtWall Mass ClimateZone 3-4, ! Name
  {cea85531-5c40-487c-b852-548887f2fb89}, ! Surface Rendering Name
  {2a9ef146-3b9f-42f7-80f4-6c093571e336}, ! Layer 1
  {e1c94108-2111-486c-85b6-5d0ab35b3d39}, ! Layer 2
  {28b42d70-40c4-46a3-8848-4144d324233b}, ! Layer 3
  {120764e0-6171-4195-91da-3c368f58334c}; ! Layer 4

OS:Construction,
  {a8659ee8-0b7b-4745-bc97-8b737e6996af}, ! Handle
  ASHRAE 90.1-2004 ExtWall Mass ClimateZone 5, ! Name
  {8533c18d-5561-4116-8323-bab3b45c42c3}, ! Surface Rendering Name
  {2a9ef146-3b9f-42f7-80f4-6c093571e336}, ! Layer 1
  {e1c94108-2111-486c-85b6-5d0ab35b3d39}, ! Layer 2
  {892ae1f9-1b80-49e9-a0b7-bfd1fefea56b}, ! Layer 3
  {120764e0-6171-4195-91da-3c368f58334c}; ! Layer 4

OS:Construction,
  {6774ba5d-b9d2-4a8c-aea5-4f55fbe39f9f}, ! Handle
  ASHRAE 90.1-2004 ExtWall Mass ClimateZone 6, ! Name
  {11334274-fad1-470b-96e0-75f29e661236}, ! Surface Rendering Name
  {2a9ef146-3b9f-42f7-80f4-6c093571e336}, ! Layer 1
  {e1c94108-2111-486c-85b6-5d0ab35b3d39}, ! Layer 2
  {c99e7ca8-752f-40cb-bebf-67f452680fd4}, ! Layer 3
  {120764e0-6171-4195-91da-3c368f58334c}; ! Layer 4

OS:Construction,
  {af83c5f3-1481-4af3-8a66-0d93b29f890e}, ! Handle
  ASHRAE 90.1-2004 ExtWall Mass ClimateZone 7, ! Name
  {a80e996f-b0c5-4e42-bc8c-e5362cd1b086}, ! Surface Rendering Name
  {2a9ef146-3b9f-42f7-80f4-6c093571e336}, ! Layer 1
  {e1c94108-2111-486c-85b6-5d0ab35b3d39}, ! Layer 2
  {10fa1ce4-1358-4818-bd23-a5674b081ee7}, ! Layer 3
  {120764e0-6171-4195-91da-3c368f58334c}; ! Layer 4

OS:Construction,
  {c9b20585-3b27-4890-b6ff-a7964865eb96}, ! Handle
  ASHRAE 90.1-2004 ExtWall Mass ClimateZone 8, ! Name
  {3a68ebdd-8700-4f27-bd1c-aeb734dec45a}, ! Surface Rendering Name
  {2a9ef146-3b9f-42f7-80f4-6c093571e336}, ! Layer 1
  {e1c94108-2111-486c-85b6-5d0ab35b3d39}, ! Layer 2
  {b6085b0d-4233-403c-ab94-9c536b41c0be}, ! Layer 3
  {120764e0-6171-4195-91da-3c368f58334c}; ! Layer 4

OS:Construction,
  {623b9d47-d9c3-4ef6-b546-8e411da6565f}, ! Handle
  ASHRAE 90.1-2004 ExtWall Mass ClimateZone alt-res 1-2, ! Name
  {f9d6eaf3-8aff-4f4f-8a77-52727d53969b}, ! Surface Rendering Name
  {2a9ef146-3b9f-42f7-80f4-6c093571e336}, ! Layer 1
  {e1c94108-2111-486c-85b6-5d0ab35b3d39}, ! Layer 2
  {28b42d70-40c4-46a3-8848-4144d324233b}, ! Layer 3
  {120764e0-6171-4195-91da-3c368f58334c}; ! Layer 4

OS:Construction,
  {877af107-2edd-45e7-8b20-56bdcb60a90b}, ! Handle
  ASHRAE 90.1-2004 ExtWall Mass ClimateZone alt-res 3, ! Name
  {5ba1a4c3-f951-4f07-ad75-653529933193}, ! Surface Rendering Name
  {2a9ef146-3b9f-42f7-80f4-6c093571e336}, ! Layer 1
  {e1c94108-2111-486c-85b6-5d0ab35b3d39}, ! Layer 2
  {892ae1f9-1b80-49e9-a0b7-bfd1fefea56b}, ! Layer 3
  {120764e0-6171-4195-91da-3c368f58334c}; ! Layer 4

OS:Construction,
  {ca94f27a-fd01-44e3-806a-7ac92cdb6ad4}, ! Handle
  ASHRAE 90.1-2004 ExtWall Mass ClimateZone alt-res 4, ! Name
  {8691acdf-ebd0-4c13-8815-240f1e6a40d3}, ! Surface Rendering Name
  {2a9ef146-3b9f-42f7-80f4-6c093571e336}, ! Layer 1
  {e1c94108-2111-486c-85b6-5d0ab35b3d39}, ! Layer 2
  {c99e7ca8-752f-40cb-bebf-67f452680fd4}, ! Layer 3
  {120764e0-6171-4195-91da-3c368f58334c}; ! Layer 4

OS:Construction,
  {98c6ac13-0d4e-47da-bac5-08e341390f74}, ! Handle
  ASHRAE 90.1-2004 ExtWall Mass ClimateZone alt-res 5-6, ! Name
  {7b4bfb74-4a79-4860-be15-7ef48f4cc0c2}, ! Surface Rendering Name
  {2a9ef146-3b9f-42f7-80f4-6c093571e336}, ! Layer 1
  {e1c94108-2111-486c-85b6-5d0ab35b3d39}, ! Layer 2
  {10fa1ce4-1358-4818-bd23-a5674b081ee7}, ! Layer 3
  {120764e0-6171-4195-91da-3c368f58334c}; ! Layer 4

OS:Construction,
  {7de43d30-4542-4518-97e2-294209ec9eb7}, ! Handle
  ASHRAE 90.1-2004 ExtWall Mass ClimateZone alt-res 7, ! Name
  {f6e822ff-5d59-4b4c-bb70-3049d5f79ffb}, ! Surface Rendering Name
  {2a9ef146-3b9f-42f7-80f4-6c093571e336}, ! Layer 1
  {e1c94108-2111-486c-85b6-5d0ab35b3d39}, ! Layer 2
  {b6085b0d-4233-403c-ab94-9c536b41c0be}, ! Layer 3
  {120764e0-6171-4195-91da-3c368f58334c}; ! Layer 4

OS:Construction,
  {87652c3a-980e-4687-aa1a-140a053d8816}, ! Handle
  ASHRAE 90.1-2004 ExtWall Mass ClimateZone alt-res 8, ! Name
  {666febd3-1458-43e9-9474-d3f4fb09dec0}, ! Surface Rendering Name
  {2a9ef146-3b9f-42f7-80f4-6c093571e336}, ! Layer 1
  {e1c94108-2111-486c-85b6-5d0ab35b3d39}, ! Layer 2
  {43fecfb5-8a80-414e-b61e-039e02cb6599}, ! Layer 3
  {120764e0-6171-4195-91da-3c368f58334c}; ! Layer 4

OS:Construction,
  {73af6073-3428-4ca8-9220-3e1ed011c18a}, ! Handle
  ASHRAE 90.1-2004 ExtWall Metal ClimateZone 1, ! Name
  {34082312-f059-45a8-aaec-449f3e0ab092}, ! Surface Rendering Name
  {a2d56665-56e4-41d0-ae3a-92fad033f45a}, ! Layer 1
  {120764e0-6171-4195-91da-3c368f58334c}; ! Layer 2

OS:Construction,
  {68d9b470-cafa-4f3d-bc0a-50369e726c7f}, ! Handle
  ASHRAE 90.1-2004 ExtWall Metal ClimateZone 2-3, ! Name
  {6552584d-2eb8-431f-99aa-2919107a823a}, ! Surface Rendering Name
  {a2d56665-56e4-41d0-ae3a-92fad033f45a}, ! Layer 1
  {dfff02aa-707b-4a6d-96ce-c7cfa3887a24}, ! Layer 2
  {120764e0-6171-4195-91da-3c368f58334c}; ! Layer 3

OS:Construction,
  {3681200a-c6de-4edb-aaae-cc9d7ea85c69}, ! Handle
  ASHRAE 90.1-2004 ExtWall Metal ClimateZone 4, ! Name
  {c870bd0a-28ad-4b26-8298-819f99d0c8ae}, ! Surface Rendering Name
  {a2d56665-56e4-41d0-ae3a-92fad033f45a}, ! Layer 1
  {1a2fe365-98d5-4cad-853a-c3429f8960eb}, ! Layer 2
  {120764e0-6171-4195-91da-3c368f58334c}; ! Layer 3

OS:Construction,
  {581a7195-e6f8-40ce-a288-4da4df34ed1d}, ! Handle
  ASHRAE 90.1-2004 ExtWall Metal ClimateZone 5, ! Name
  {45d888e1-71ae-40b1-bb6b-eca312db67b1}, ! Surface Rendering Name
  {a2d56665-56e4-41d0-ae3a-92fad033f45a}, ! Layer 1
  {8e2fe2c1-9a08-421d-9a13-ca2362ce89b5}, ! Layer 2
  {120764e0-6171-4195-91da-3c368f58334c}; ! Layer 3

OS:Construction,
  {81b06ce6-9320-4169-98dd-40301e254e89}, ! Handle
  ASHRAE 90.1-2004 ExtWall Metal ClimateZone 6-8, ! Name
  {fce86463-bdbc-4888-810a-03761631d3c9}, ! Surface Rendering Name