
OS:Version,
  {7c0529ef-59f8-4cb1-b34a-c3f8b4d0873a}, !- Handle
  1.3.0;                                  !- Version Identifier

OS:Construction,
  {3f4a1b48-fa74-4bd8-8884-eb0aa2030937}, !- Handle
  ASHRAE 189.1-2009 AtticFloor ClimateZone 1-8, !- Name
  ,                                       !- Surface Rendering Name
  {342400f5-7e3e-4cd4-a6c8-9915374fd737}, !- Layer 1
  {ef0cca56-fda7-4c49-b6bb-b342d236ed5e}, !- Layer 2
  {342400f5-7e3e-4cd4-a6c8-9915374fd737}; !- Layer 3

OS:StandardsInformation:Construction,
  {86f51839-7e84-4c4a-9af2-bf72e5aa5619}, !- Handle
  {3f4a1b48-fa74-4bd8-8884-eb0aa2030937}, !- Construction Name
  AtticFloor,                             !- Intended Surface Type
  WoodFramed;                             !- Standards Construction Type

OS:Material,
  {342400f5-7e3e-4cd4-a6c8-9915374fd737}, !- Handle
  1/2IN Gypsum,                           !- Name
  Smooth,                                 !- Roughness
  0.0127,                                 !- Thickness {m}
  0.16,                                   !- Conductivity {W/m-K}
  784.9,                                  !- Density {kg/m3}
  830.000000000001,                       !- Specific Heat {J/kg-K}
  0.9,                                    !- Thermal Absorptance
  0.92,                                   !- Solar Absorptance
  0.92;                                   !- Visible Absorptance

OS:Material,
  {ef0cca56-fda7-4c49-b6bb-b342d236ed5e}, !- Handle
  AtticFloor Insulation,                  !- Name
  MediumRough,                            !- Roughness
  0.2379,                                 !- Thickness {m}
  0.049,                                  !- Conductivity {W/m-K}
  265,                                    !- Density {kg/m3}
  836.800000000001,                       !- Specific Heat {J/kg-K}
  0.9,                                    !- Thermal Absorptance
  0.7,                                    !- Solar Absorptance
  0.7;                                    !- Visible Absorptance

OS:Construction,
  {756fb3ad-b071-4039-bff9-e6b92f6afcce}, !- Handle
  ASHRAE 189.1-2009 ExtRoof IEAD ClimateZone 1, !- Name
  ,                                       !- Surface Rendering Name
  {fe79fd37-74d8-43be-a1a1-dede00ab7461}, !- Layer 1
  {d8c7a76c-ee60-4322-a0b8-169c01e239c5}, !- Layer 2
  {fdf2bdaf-a98f-4e09-90df-7a34ed8a3e9b}; !- Layer 3

OS:StandardsInformation:Construction,
  {4b05ac5e-7235-4e4e-be3b-3e77be709b1c}, !- Handle
  {756fb3ad-b071-4039-bff9-e6b92f6afcce}, !- Construction Name
  ExteriorRoof,                           !- Intended Surface Type
  IEAD;                                   !- Standards Construction Type

OS:Material,
  {fe79fd37-74d8-43be-a1a1-dede00ab7461}, !- Handle
  Roof Membrane,                          !- Name
  VeryRough,                              !- Roughness
  0.0095,                                 !- Thickness {m}
  0.16,                                   !- Conductivity {W/m-K}
  1121.29,                                !- Density {kg/m3}
  1460,                                   !- Specific Heat {J/kg-K}
  0.9,                                    !- Thermal Absorptance
  0.7,                                    !- Solar Absorptance
  0.7;                                    !- Visible Absorptance

OS:Material,
  {d8c7a76c-ee60-4322-a0b8-169c01e239c5}, !- Handle
  Roof Insulation [18],                   !- Name
  MediumRough,                            !- Roughness
  0.1693,                                 !- Thickness {m}
  0.049,                                  !- Conductivity {W/m-K}
  265,                                    !- Density {kg/m3}
  836.800000000001,                       !- Specific Heat {J/kg-K}
  0.9,                                    !- Thermal Absorptance
  0.7,                                    !- Solar Absorptance
  0.7;                                    !- Visible Absorptance

OS:Material,
  {fdf2bdaf-a98f-4e09-90df-7a34ed8a3e9b}, !- Handle
  Metal Decking,                          !- Name
  MediumSmooth,                           !- Roughness
  0.0015,                                 !- Thickness {m}
  45.006,                                 !- Conductivity {W/m-K}
  7680,                                   !- Density {kg/m3}
  418.4,                                  !- Specific Heat {J/kg-K}
  0.9,                                    !- Thermal Absorptance
  0.7,                                    !- Solar Absorptance
  0.3;                                    !- Visible Absorptance

OS:Construction,
  {9d58564a-144b-4198-887e-47762bf33981}, !- Handle
  ASHRAE 189.1-2009 ExtRoof IEAD ClimateZone 2-5, !- Name
  ,                                       !- Surface Rendering Name
  {fe79fd37-74d8-43be-a1a1-dede00ab7461}, !- Layer 1
  {0f0208b6-4cfe-420c-bc8c-53137d2df5c0}, !- Layer 2
  {fdf2bdaf-a98f-4e09-90df-7a34ed8a3e9b}; !- Layer 3

OS:StandardsInformation:Construction,
  {78be783f-bd3a-40f7-8d0b-71935f55a19f}, !- Handle
  {9d58564a-144b-4198-887e-47762bf33981}, !- Construction Name
  ExteriorRoof,                           !- Intended Surface Type
  IEAD;                                   !- Standards Construction Type

OS:Material,
  {0f0208b6-4cfe-420c-bc8c-53137d2df5c0}, !- Handle
  Roof Insulation [21],                   !- Name
  MediumRough,                            !- Roughness
  0.2105,                                 !- Thickness {m}
  0.049,                                  !- Conductivity {W/m-K}
  265,                                    !- Density {kg/m3}
  836.800000000001,                       !- Specific Heat {J/kg-K}
  0.9,                                    !- Thermal Absorptance
  0.7,                                    !- Solar Absorptance
  0.7;                                    !- Visible Absorptance

OS:Construction,
  {6f146dc7-6a84-404d-bcfa-65ec5b019523}, !- Handle
  ASHRAE 189.1-2009 ExtRoof IEAD ClimateZone 6, !- Name
  ,                                       !- Surface Rendering Name
  {fe79fd37-74d8-43be-a1a1-dede00ab7461}, !- Layer 1
  {42ff593d-be5b-4478-ba7d-795a6f52b5d7}, !- Layer 2
  {fdf2bdaf-a98f-4e09-90df-7a34ed8a3e9b}; !- Layer 3

OS:StandardsInformation:Construction,
  {55f02435-80ce-45a7-956a-9fc49633c20f}, !- Handle
  {6f146dc7-6a84-404d-bcfa-65ec5b019523}, !- Construction Name
  ExteriorRoof,                           !- Intended Surface Type
  IEAD;                                   !- Standards Construction Type

OS:Material,
  {42ff593d-be5b-4478-ba7d-795a6f52b5d7}, !- Handle
  Roof Insulation [24],                   !- Name
  MediumRough,                            !- Roughness
  0.260100000000001,                      !- Thickness {m}
  0.049,                                  !- Conductivity {W/m-K}
  265,                                    !- Density {kg/m3}
  836.800000000001,                       !- Specific Heat {J/kg-K}
  0.9,                                    !- Thermal Absorptance
  0.7,                                    !- Solar Absorptance
  0.7;                                    !- Visible Absorptance

OS:Construction,
  {6e213455-4779-48df-98ba-495e9d9e8174}, !- Handle
  ASHRAE 189.1-2009 ExtRoof IEAD ClimateZone 7-8, !- Name
  ,                                       !- Surface Rendering Name
  {fe79fd37-74d8-43be-a1a1-dede00ab7461}, !- Layer 1
  {f9e3bcb8-5827-4c51-a348-1b46e619f987}, !- Layer 2
  {fdf2bdaf-a98f-4e09-90df-7a34ed8a3e9b}; !- Layer 3

OS:StandardsInformation:Construction,
  {9972df4b-fd28-4b99-a0f8-a300da7085b4}, !- Handle
  {6e213455-4779-48df-98ba-495e9d9e8174}, !- Construction Name
  ExteriorRoof,                           !- Intended Surface Type
  IEAD;                                   !- Standards Construction Type

OS:Material,
  {f9e3bcb8-5827-4c51-a348-1b46e619f987}, !- Handle
  Roof Insulation [26],                   !- Name
  MediumRough,                            !- Roughness
  0.2941,                                 !- Thickness {m}
  0.049,                                  !- Conductivity {W/m-K}
  265,                                    !- Density {kg/m3}
  836.800000000001,                       !- Specific Heat {J/kg-K}
  0.9,                                    !- Thermal Absorptance
  0.7,                                    !- Solar Absorptance
  0.7;                                    !- Visible Absorptance

OS:Construction,
  {2d80e54d-aea3-46eb-818c-a03e9cb5e18b}, !- Handle
  ASHRAE 189.1-2009 ExtRoof Metal ClimateZone 1, !- Name
  ,                                       !- Surface Rendering Name
  {9c9f78b7-df59-4310-b89b-b06d2f239d95}, !- Layer 1
  {55b712ca-8b1e-4ce4-931c-26bc5785ac23}; !- Layer 2

OS:StandardsInformation:Construction,
  {33070c6c-f3da-4186-a698-8b5a10c8c17d}, !- Handle
  {2d80e54d-aea3-46eb-818c-a03e9cb5e18b}, !- Construction Name
  ExteriorRoof,                           !- Intended Surface Type
  Metal;                                  !- Standards Construction Type

OS:Material,
  {9c9f78b7-df59-4310-b89b-b06d2f239d95}, !- Handle
  Metal Roofing,                          !- Name
  MediumSmooth,                           !- Roughness
  0.0015,                                 !- Thickness {m}
  45.006,                                 !- Conductivity {W/m-K}
  7680,                                   !- Density {kg/m3}
  418.4,                                  !- Specific Heat {J/kg-K}
  0.9,                                    !- Thermal Absorptance
  0.3,                                    !- Solar Absorptance
  0.3;                                    !- Visible Absorptance

OS:Material,
  {55b712ca-8b1e-4ce4-931c-26bc5785ac23}, !- Handle
  Roof Insulation [19],                   !- Name
  MediumRough,                            !- Roughness
  0.1868,                                 !- Thickness {m}
  0.049,                                  !- Conductivity {W/m-K}
  265,                                    !- Density {kg/m3}
  836.800000000001,                       !- Specific Heat {J/kg-K}
  0.9,                                    !- Thermal Absorptance
  0.7,                                    !- Solar Absorptance
  0.7;                                    !- Visible Absorptance

OS:Construction,
  {34133160-59d2-43a4-a50f-36e659121dcd}, !- Handle
  ASHRAE 189.1-2009 ExtRoof Metal ClimateZone 2-5, !- Name
  ,                                       !- Surface Rendering Name
  {9c9f78b7-df59-4310-b89b-b06d2f239d95}, !- Layer 1
  {4c4bfc9c-5e4a-4af0-80b6-168f07c86604}; !- Layer 2

OS:StandardsInformation:Construction,
  {d5d22351-0ede-4e38-a0e5-58c0f9f7142e}, !- Handle
  {34133160-59d2-43a4-a50f-36e659121dcd}, !- Construction Name
  ExteriorRoof,                           !- Intended Surface Type
  Metal;                                  !- Standards Construction Type

OS:Material,
  {4c4bfc9c-5e4a-4af0-80b6-168f07c86604}, !- Handle
  Roof Insulation [22],                   !- Name
  MediumRough,                            !- Roughness
  0.2358,                                 !- Thickness {m}
  0.049,                                  !- Conductivity {W/m-K}
  265,                                    !- Density {kg/m3}
  836.800000000001,                       !- Specific Heat {J/kg-K}
  0.9,                                    !- Thermal Absorptance
  0.7,                                    !- Solar Absorptance
  0.7;                                    !- Visible Absorptance

OS:Construction,
  {340b5262-068e-46a0-8246-a5b23cf621c9}, !- Handle
  ASHRAE 189.1-2009 ExtRoof Metal ClimateZone 6, !- Name
  ,                                       !- Surface Rendering Name
  {9c9f78b7-df59-4310-b89b-b06d2f239d95}, !- Layer 1
  {7217b44b-8631-4f5f-94b6-c3bb7dc5aba4}; !- Layer 2

OS:StandardsInformation:Construction,
  {57051163-99fa-4ee6-b55d-c72b4dd6bb5f}, !- Handle
  {340b5262-068e-46a0-8246-a5b23cf621c9}, !- Construction Name
  ExteriorRoof,                           !- Intended Surface Type
  Metal;                                  !- Standards Construction Type

OS:Material,
  {7217b44b-8631-4f5f-94b6-c3bb7dc5aba4}, !- Handle
  Roof Insulation [25],                   !- Name
  MediumRough,                            !- Roughness
  0.263,                                  !- Thickness {m}
  0.049,                                  !- Conductivity {W/m-K}
  265,                                    !- Density {kg/m3}
  836.800000000001,                       !- Specific Heat {J/kg-K}
  0.9,                                    !- Thermal Absorptance
  0.7,                                    !- Solar Absorptance
  0.7;                                    !- Visible Absorptance

OS:Construction,
  {a4b72a84-3856-4a6c-a870-a9b09fcac159}, !- Handle
  ASHRAE 189.1-2009 ExtRoof Metal ClimateZone 7-8, !- Name
  ,                                       !- Surface Rendering Name
  {9c9f78b7-df59-4310-b89b-b06d2f239d95}, !- Layer 1
  {8de8e6dd-ea5b-43aa-aac7-c8725255bea3}; !- Layer 2

OS:StandardsInformation:Construction,
  {128890be-e05d-4237-8468-9dd4b74ed783}, !- Handle
  {a4b72a84-3856-4a6c-a870-a9b09fcac159}, !- Construction Name
  ExteriorRoof,                           !- Intended Surface Type
  Metal;                                  !- Standards Construction Type

OS:Material,
  {8de8e6dd-ea5b-43aa-aac7-c8725255bea3}, !- Handle
  Roof Insulation [27],                   !- Name
  MediumRough,                            !- Roughness
  0.297000000000001,                      !- Thickness {m}
  0.049,                                  !- Conductivity {W/m-K}
  265,                                    !- Density {kg/m3}
  836.800000000001,                       !- Specific Heat {J/kg-K}
  0.9,                                    !- Thermal Absorptance
  0.7,                                    !- Solar Absorptance
  0.7;                                    !- Visible Absorptance

OS:Construction,
  {df960764-4907-4c72-bd00-f7c8307e5cea}, !- Handle
  ASHRAE 189.1-2009 ExtWall Mass ClimateZone 1, !- Name
  ,                                       !- Surface Rendering Name
  {3c17db36-3de5-4b36-a759-108e6b6a2128}, !- Layer 1
  {6390440a-d333-4ee1-8297-1c61ae353f95}, !- Layer 2
  {2b0c8dde-b999-49d7-91fe-351b151734ae}, !- Layer 3
  {342400f5-7e3e-4cd4-a6c8-9915374fd737}; !- Layer 4

OS:StandardsInformation:Construction,
  {c49f73e2-0322-4931-bac8-118bc814097b}, !- Handle
  {df960764-4907-4c72-bd00-f7c8307e5cea}, !- Construction Name
  ExteriorWall,                           !- Intended Surface Type
  Mass;                                   !- Standards Construction Type

OS:Material,
  {3c17db36-3de5-4b36-a759-108e6b6a2128}, !- Handle
  1IN Stucco,                             !- Name
  Smooth,                                 !- Roughness
  0.0253,                                 !- Thickness {m}
  0.691799999999999,                      !- Conductivity {W/m-K}
  1858,                                   !- Density {kg/m3}
  836.999999999999,                       !- Specific Heat {J/kg-K}
  0.9,                                    !- Thermal Absorptance
  0.92,                                   !- Solar Absorptance
  0.92;                                   !- Visible Absorptance

OS:Material,
  {6390440a-d333-4ee1-8297-1c61ae353f95}, !- Handle
  8IN Concrete HW,                        !- Name
  MediumRough,                            !- Roughness
  0.2033,                                 !- Thickness {m}
  1.72959999999999,                       !- Conductivity {W/m-K}
  2242.99999999999,                       !- Density {kg/m3}
  836.999999999999,                       !- Specific Heat {J/kg-K}
  0.9,                                    !- Thermal Absorptance
  0.65,                                   !- Solar Absorptance
  0.65;                                   !- Visible Absorptance

OS:Material,
  {2b0c8dde-b999-49d7-91fe-351b151734ae}, !- Handle
  Wall Insulation [31],                   !- Name
  MediumRough,                            !- Roughness
  0.0337000000000001,                     !- Thickness {m}
  0.0432,                                 !- Conductivity {W/m-K}
  91,                                     !- Density {kg/m3}
  836.999999999999,                       !- Specific Heat {J/kg-K}
  0.9,                                    !- Thermal Absorptance
  0.5,                                    !- Solar Absorptance
  0.5;                                    !- Visible Absorptance

OS:Construction,
  {15133a7c-7a0b-46a9-a329-a15a8724cb53}, !- Handle
  ASHRAE 189.1-2009 ExtWall Mass ClimateZone 2, !- Name
  ,                                       !- Surface Rendering Name
  {3c17db36-3de5-4b36-a759-108e6b6a2128}, !- Layer 1
  {6390440a-d333-4ee1-8297-1c61ae353f95}, !- Layer 2
  {45baf090-89d2-4fd9-a8c0-bcb9aef42bc5}, !- Layer 3
  {342400f5-7e3e-4cd4-a6c8-9915374fd737}; !- Layer 4

OS:StandardsInformation:Construction,
  {28146286-4e6b-4200-ac69-da4fa06e6fda}, !- Handle
  {15133a7c-7a0b-46a9-a329-a15a8724cb53}, !- Construction Name
  ExteriorWall,                           !- Intended Surface Type
  Mass;                                   !- Standards Construction Type

OS:Material,
  {45baf090-89d2-4fd9-a8c0-bcb9aef42bc5}, !- Handle
  Wall Insulation [35],                   !- Name
  MediumRough,                            !- Roughness
  0.0452,                                 !- Thickness {m}
  0.0432,                                 !- Conductivity {W/m-K}
  91,                                     !- Density {kg/m3}
  836.999999999999,                       !- Specific Heat {J/kg-K}
  0.9,                                    !- Thermal Absorptance
  0.5,                                    !- Solar Absorptance
  0.5;                                    !- Visible Absorptance

OS:Construction,
  {30f18194-4d5f-4405-abae-0d10a3827e40}, !- Handle
  ASHRAE 189.1-2009 ExtWall Mass ClimateZone 3, !- Name
  ,                                       !- Surface Rendering Name
  {3c17db36-3de5-4b36-a759-108e6b6a2128}, !- Layer 1
  {6390440a-d333-4ee1-8297-1c61ae353f95}, !- Layer 2
  {2ac35ecb-619f-466f-b394-c371250412d2}, !- Layer 3
  {342400f5-7e3e-4cd4-a6c8-9915374fd737}; !- Layer 4

OS:StandardsInformation:Construction,
  {08c3fbed-70b0-4f04-9652-0c3d2f537a9b}, !- Handle
  {30f18194-4d5f-4405-abae-0d10a3827e40}, !- Construction Name
  ExteriorWall,                           !- Intended Surface Type
  Mass;                                   !- Standards Construction Type

OS:Material,
  {2ac35ecb-619f-466f-b394-c371250412d2}, !- Handle
  Wall Insulation [36],                   !- Name
  MediumRough,                            !- Roughness
  0.0565999999999999,                     !- Thickness {m}
  0.0432,                                 !- Conductivity {W/m-K}
  91,                                     !- Density {kg/m3}
  836.999999999999,                       !- Specific Heat {J/kg-K}
  0.9,                                    !- Thermal Absorptance
  0.5,                                    !- Solar Absorptance
  0.5;                                    !- Visible Absorptance

OS:Construction,
  {90af057e-da8e-4b6a-ad16-9c598e564933}, !- Handle
  ASHRAE 189.1-2009 ExtWall Mass ClimateZone 4, !- Name
  ,                                       !- Surface Rendering Name
  {3c17db36-3de5-4b36-a759-108e6b6a2128}, !- Layer 1
  {6390440a-d333-4ee1-8297-1c61ae353f95}, !- Layer 2
  {6e8b84a1-1316-4aea-8b1a-eea950e23b7d}, !- Layer 3
  {342400f5-7e3e-4cd4-a6c8-9915374fd737}; !- Layer 4

OS:StandardsInformation:Construction,
  {d72eead2-2aa4-4015-b937-fb95e3770f72}, !- Handle
  {90af057e-da8e-4b6a-ad16-9c598e564933}, !- Construction Name
  ExteriorWall,                           !- Intended Surface Type
  Mass;                                   !- Standards Construction Type

OS:Material,
  {6e8b84a1-1316-4aea-8b1a-eea950e23b7d}, !- Handle
  Wall Insulation [37],                   !- Name
  MediumRough,                            !- Roughness
  0.0680999999999999,                     !- Thickness {m}
  0.0432,                                 !- Conductivity {W/m-K}
  91,                                     !- Density {kg/m3}
  836.999999999999,                       !- Specific Heat {J/kg-K}
  0.9,                                    !- Thermal Absorptance
  0.5,                                    !- Solar Absorptance
  0.5;                                    !- Visible Absorptance

OS:Construction,
  {a1d779e5-68bc-4703-a057-b2549544478a}, !- Handle
  ASHRAE 189.1-2009 ExtWall Mass ClimateZone 5, !- Name
  ,                                       !- Surface Rendering Name
  {3c17db36-3de5-4b36-a759-108e6b6a2128}, !- Layer 1
  {6390440a-d333-4ee1-8297-1c61ae353f95}, !- Layer 2
  {a9236515-4af1-4924-9d04-d48d815bc9b2}, !- Layer 3
  {342400f5-7e3e-4cd4-a6c8-9915374fd737}; !- Layer 4

OS:StandardsInformation:Construction,
  {4cc5ae24-c2d0-4106-9ea5-3985f2d17444}, !- Handle
  {a1d779e5-68bc-4703-a057-b2549544478a}, !- Construction Name
  ExteriorWall,                           !- Intended Surface Type
  Mass;                                   !- Standards Construction Type

OS:Material,
  {a9236515-4af1-4924-9d04-d48d815bc9b2}, !- Handle
  Wall Insulation [40],                   !- Name
  MediumRough,                            !- Roughness
  0.0793999999999999,                     !- Thickness {m}
  0.0432,                                 !- Conductivity {W/m-K}
  91,                                     !- Density {kg/m3}
  836.999999999999,                       !- Specific Heat {J/kg-K}
  0.9,                                    !- Thermal Absorptance
  0.5,                                    !- Solar Absorptance
  0.5;                                    !- Visible Absorptance

OS:Construction,
  {d614a494-070d-4da0-907b-4cfeec5806fa}, !- Handle
  ASHRAE 189.1-2009 ExtWall Mass ClimateZone 6, !- Name
  ,                                       !- Surface Rendering Name
  {3c17db36-3de5-4b36-a759-108e6b6a2128}, !- Layer 1
  {6390440a-d333-4ee1-8297-1c61ae353f95}, !- Layer 2
  {11433a7f-0c03-44cc-8262-bf0ef0a170ac}, !- Layer 3
  {342400f5-7e3e-4cd4-a6c8-9915374fd737}; !- Layer 4

OS:StandardsInformation:Construction,
  {f15e2a28-8f60-4c54-9617-9eb3eba56c6c}, !- Handle
  {d614a494-070d-4da0-907b-4cfeec5806fa}, !- Construction Name
  ExteriorWall,                           !- Intended Surface Type
  Mass;                                   !- Standards Construction Type

OS:Material,
  {11433a7f-0c03-44cc-8262-bf0ef0a170ac}, !- Handle
  Wall Insulation [42],                   !- Name
  MediumRough,                            !- Roughness
  0.0913999999999999,                     !- Thickness {m}
  0.0432,                                 !- Conductivity {W/m-K}
  91,                                     !- Density {kg/m3}
  836.999999999999,                       !- Specific Heat {J/kg-K}
  0.9,                                    !- Thermal Absorptance
  0.5,                                    !- Solar Absorptance
  0.5;                                    !- Visible Absorptance

OS:Construction,
  {000f741d-2396-4796-9f8a-42257f646d4d}, !- Handle
  ASHRAE 189.1-2009 ExtWall Mass ClimateZone 7-8, !- Name
  ,                                       !- Surface Rendering Name
  {3c17db36-3de5-4b36-a759-108e6b6a2128}, !- Layer 1
  {6390440a-d333-4ee1-8297-1c61ae353f95}, !- Layer 2
  {2aa0dcdb-2d41-4f17-94ef-f33f14ee632b}, !- Layer 3
  {342400f5-7e3e-4cd4-a6c8-9915374fd737}; !- Layer 4

OS:StandardsInformation:Construction,
  {5509ab9a-5135-43b4-b4f5-c3b07f6bfaa2}, !- Handle
  {000f741d-2396-4796-9f8a-42257f646d4d}, !- Construction Name
  ExteriorWall,                           !- Intended Surface Type
  Mass;                                   !- Standards Construction Type

OS:Material,
  {2aa0dcdb-2d41-4f17-94ef-f33f14ee632b}, !- Handle
  Wall Insulation [44],                   !- Name
  MediumRough,                            !- Roughness
  0.1104,                                 !- Thickness {m}
  0.0432,                                 !- Conductivity {W/m-K}
  91,                                     !- Density {kg/m3}
  836.999999999999,                       !- Specific Heat {J/kg-K}
  0.9,                                    !- Thermal Absorptance
  0.5,                                    !- Solar Absorptance
  0.5;                                    !- Visible Absorptance

OS:Construction,
  {a81e95e3-97dc-4cd8-b2e0-a6abef2a05c7}, !- Handle
  ASHRAE 189.1-2009 ExtWall Mass ClimateZone alt-res 1, !- Name
  ,                                       !- Surface Rendering Name
  {3c17db36-3de5-4b36-a759-108e6b6a2128}, !- Layer 1
  {6390440a-d333-4ee1-8297-1c61ae353f95}, !- Layer 2
  {45baf090-89d2-4fd9-a8c0-bcb9aef42bc5}, !- Layer 3
  {342400f5-7e3e-4cd4-a6c8-9915374fd737}; !- Layer 4

OS:StandardsInformation:Construction,
  {173953cd-2acc-4ccb-9de5-73620862e57a}, !- Handle
  {a81e95e3-97dc-4cd8-b2e0-a6abef2a05c7}, !- Construction Name
  ExteriorWall,                           !- Intended Surface Type
  Mass;                                   !- Standards Construction Type

OS:Construction,
  {c6cb05af-32d5-4238-9a46-4ecc5d59b378}, !- Handle
  ASHRAE 189.1-2009 ExtWall Mass ClimateZone alt-res 2, !- Name
  ,                                       !- Surface Rendering Name
  {3c17db36-3de5-4b36-a759-108e6b6a2128}, !- Layer 1
  {6390440a-d333-4ee1-8297-1c61ae353f95}, !- Layer 2
  {2ac35ecb-619f-466f-b394-c371250412d2}, !- Layer 3
  {342400f5-7e3e-4cd4-a6c8-9915374fd737}; !- Layer 4

OS:StandardsInformation:Construction,
  {a35b695f-e0a0-45f9-8815-7a4ae4e729ec}, !- Handle
  {c6cb05af-32d5-4238-9a46-4ecc5d59b378}, !- Construction Name
  ExteriorWall,                           !- Intended Surface Type
  Mass;                                   !- Standards Construction Type

OS:Construction,
  {00329c97-f636-4445-9fc2-ab602264b99a}, !- Handle
  ASHRAE 189.1-2009 ExtWall Mass ClimateZone alt-res 3, !- Name
  ,                                       !- Surface Rendering Name
  {3c17db36-3de5-4b36-a759-108e6b6a2128}, !- Layer 1
  {6390440a-d333-4ee1-8297-1c61ae353f95}, !- Layer 2
  {6e8b84a1-1316-4aea-8b1a-eea950e23b7d}, !- Layer 3
  {342400f5-7e3e-4cd4-a6c8-9915374fd737}; !- Layer 4

OS:StandardsInformation:Construction,
  {c3f0031e-08c4-4659-ad11-3eb3c9b17635}, !- Handle
  {00329c97-f636-4445-9fc2-ab602264b99a}, !- Construction Name
  ExteriorWall,                           !- Intended Surface Type
  Mass;                                   !- Standards Construction Type

OS:Construction,
  {d67a91c3-39c8-49a7-b573-4d2da887f38b}, !- Handle
  ASHRAE 189.1-2009 ExtWall Mass ClimateZone alt-res 4, !- Name
  ,                                       !- Surface Rendering Name
  {3c17db36-3de5-4b36-a759-108e6b6a2128}, !- Layer 1
  {6390440a-d333-4ee1-8297-1c61ae353f95}, !- Layer 2
  {a9236515-4af1-4924-9d04-d48d815bc9b2}, !- Layer 3
  {342400f5-7e3e-4cd4-a6c8-9915374fd737}; !- Layer 4

OS:StandardsInformation:Construction,
  {48ccbed5-9a8a-4935-9a5e-d8e13d61be77}, !- Handle
  {d67a91c3-39c8-49a7-b573-4d2da887f38b}, !- Construction Name
  ExteriorWall,                           !- Intended Surface Type
  Mass;                                   !- Standards Construction Type

OS:Construction,
  {91f57a59-a2f5-45d7-96ad-44bb066d47cc}, !- Handle
  ASHRAE 189.1-2009 ExtWall Mass ClimateZone alt-res 5, !- Name
  ,                                       !- Surface Rendering Name
  {3c17db36-3de5-4b36-a759-108e6b6a2128}, !- Layer 1
  {6390440a-d333-4ee1-8297-1c61ae353f95}, !- Layer 2
  {11433a7f-0c03-44cc-8262-bf0ef0a170ac}, !- Layer 3
  {342400f5-7e3e-4cd4-a6c8-9915374fd737}; !- Layer 4

OS:StandardsInformation:Construction,
  {f44f7fc5-f9f7-418f-bbc7-ab45b56400c6}, !- Handle
  {91f57a59-a2f5-45d7-96ad-44bb066d47cc}, !- Construction Name
  ExteriorWall,                           !- Intended Surface Type
  Mass;                                   !- Standards Construction Type

OS:Construction,
  {5f2be6ff-7bd9-4ab5-aea1-47b297c65ed5}, !- Handle
  ASHRAE 189.1-2009 ExtWall Mass ClimateZone alt-res 6, !- Name
  ,                                       !- Surface Rendering Name
  {3c17db36-3de5-4b36-a759-108e6b6a2128}, !- Layer 1
  {6390440a-d333-4ee1-8297-1c61ae353f95}, !- Layer 2
  {2aa0dcdb-2d41-4f17-94ef-f33f14ee632b}, !- Layer 3
  {342400f5-7e3e-4cd4-a6c8-9915374fd737}; !- Layer 4

OS:StandardsInformation:Construction,
  {51f2fd2f-0855-475b-a6b3-a6c0f9d1a94f}, !- Handle
  {5f2be6ff-7bd9-4ab5-aea1-47b297c65ed5}, !- Construction Name
  ExteriorWall,                           !- Intended Surface Type
  Mass;                                   !- Standards Construction Type

OS:Construction,
  {4569eb61-a03e-40eb-b3d9-cbe45241ea66}, !- Handle
  ASHRAE 189.1-2009 ExtWall Mass ClimateZone alt-res 7, !- Name
  ,                                       !- Surface Rendering Name
  {3c17db36-3de5-4b36-a759-108e6b6a2128}, !- Layer 1
  {6390440a-d333-4ee1-8297-1c61ae353f95}, !- Layer 2
  {2aa0dcdb-2d41-4f17-94ef-f33f14ee632b}, !- Layer 3
  {342400f5-7e3e-4cd4-a6c8-9915374fd737}; !- Layer 4

OS:StandardsInformation:Construction,
  {348b8897-ff0c-44b8-9225-ff0794d9a22e}, !- Handle
  {4569eb61-a03e-40eb-b3d9-cbe45241ea66}, !- Construction Name
  ExteriorWall,                           !- Intended Surface Type
  Mass;                                   !- Standards Construction Type

OS:Construction,
  {1adda19d-53a3-4a1f-8384-853ced600901}, !- Handle
  ASHRAE 189.1-2009 ExtWall Mass ClimateZone alt-res 8, !- Name