
OS:Version,
  {128d3929-2ba1-4fab-9285-26c8714962fd}, !- Handle
  2.3.0;                                  !- Version Identifier

OS:Construction,
  {a8f6d854-5c9f-4a8b-a47f-5122ad5e30a7}, !- Handle
  ASHRAE 189.1-2009 AtticFloor ClimateZone 1-8, !- Name
  ,                                       !- Surface Rendering Name
  {2c36bbe8-bf82-4572-9889-50fd21ac7b5e}, !- Layer 1
  {c9c11e6e-d65a-4182-bad7-4fc891e73afc}, !- Layer 2
  {2c36bbe8-bf82-4572-9889-50fd21ac7b5e}; !- Layer 3

OS:StandardsInformation:Construction,
  {d0c4dcaa-05f1-4725-83d1-79049826f830}, !- Handle
  {a8f6d854-5c9f-4a8b-a47f-5122ad5e30a7}, !- Construction Name
  AtticFloor,                             !- Intended Surface Type
  WoodFramed,                             !- Standards Construction Type
  ,                                       !- Perturbable Layer
  ,                                       !- Perturbable Layer Type
  ,                                       !- Other Perturbable Layer Type
  ASHRAE 189.1-2009;                      !- Construction Standard

OS:Material,
  {2c36bbe8-bf82-4572-9889-50fd21ac7b5e}, !- Handle
  1/2IN Gypsum,                           !- Name
  Smooth,                                 !- Roughness
  0.0127,                                 !- Thickness {m}
  0.16,                                   !- Conductivity {W/m-K}
  784.9,                                  !- Density {kg/m3}
  830.000000000001,                       !- Specific Heat {J/kg-K}
  0.9,                                    !- Thermal Absorptance
  0.4,                                    !- Solar Absorptance
  0.4;                                    !- Visible Absorptance

OS:StandardsInformation:Material,
  {fd68a58c-6c21-4085-89dc-31487fcf078a}, !- Handle
  {2c36bbe8-bf82-4572-9889-50fd21ac7b5e}; !- Material Name

OS:Material,
  {c9c11e6e-d65a-4182-bad7-4fc891e73afc}, !- Handle
  AtticFloor Insulation,                  !- Name
  MediumRough,                            !- Roughness
  0.2379,                                 !- Thickness {m}
  0.049,                                  !- Conductivity {W/m-K}
  265,                                    !- Density {kg/m3}
  836.800000000001,                       !- Specific Heat {J/kg-K}
  0.9,                                    !- Thermal Absorptance
  0.7,                                    !- Solar Absorptance
  0.7;                                    !- Visible Absorptance

OS:StandardsInformation:Material,
  {f129f806-83c1-4356-968c-33151ee82af2}, !- Handle
  {c9c11e6e-d65a-4182-bad7-4fc891e73afc}; !- Material Name

OS:Construction,
  {7572c1e2-9eec-4440-b773-4c8b3d69e7d2}, !- Handle
  ASHRAE 189.1-2009 ExtRoof IEAD ClimateZone 1, !- Name
  ,                                       !- Surface Rendering Name
  {ecef206b-ecab-465f-b4cb-48f8fb606882}, !- Layer 1
  {e7cd610b-1f48-4acc-a78f-e58ff3f8cdfa}, !- Layer 2
  {6ec72926-2943-4468-b0d1-03545a3e623b}; !- Layer 3

OS:StandardsInformation:Construction,
  {8a8896cd-b539-4046-9d18-0bdf35de51f8}, !- Handle
  {7572c1e2-9eec-4440-b773-4c8b3d69e7d2}, !- Construction Name
  ExteriorRoof,                           !- Intended Surface Type
  IEAD,                                   !- Standards Construction Type
  ,                                       !- Perturbable Layer
  ,                                       !- Perturbable Layer Type
  ,                                       !- Other Perturbable Layer Type
  ASHRAE 189.1-2009;                      !- Construction Standard

OS:Material,
  {ecef206b-ecab-465f-b4cb-48f8fb606882}, !- Handle
  Roof Membrane,                          !- Name
  VeryRough,                              !- Roughness
  0.0095,                                 !- Thickness {m}
  0.16,                                   !- Conductivity {W/m-K}
  1121.29,                                !- Density {kg/m3}
  1460,                                   !- Specific Heat {J/kg-K}
  0.9,                                    !- Thermal Absorptance
  0.7,                                    !- Solar Absorptance
  0.7;                                    !- Visible Absorptance

OS:StandardsInformation:Material,
  {a40d55a0-fb99-4196-89ef-73dd363d8f80}, !- Handle
  {ecef206b-ecab-465f-b4cb-48f8fb606882}; !- Material Name

OS:Material,
  {e7cd610b-1f48-4acc-a78f-e58ff3f8cdfa}, !- Handle
  Roof Insulation [18],                   !- Name
  MediumRough,                            !- Roughness
  0.1693,                                 !- Thickness {m}
  0.049,                                  !- Conductivity {W/m-K}
  265,                                    !- Density {kg/m3}
  836.800000000001,                       !- Specific Heat {J/kg-K}
  0.9,                                    !- Thermal Absorptance
  0.7,                                    !- Solar Absorptance
  0.7;                                    !- Visible Absorptance

OS:StandardsInformation:Material,
  {c4ae9512-654f-4adc-9f20-71957df10110}, !- Handle
  {e7cd610b-1f48-4acc-a78f-e58ff3f8cdfa}; !- Material Name

OS:Material,
  {6ec72926-2943-4468-b0d1-03545a3e623b}, !- Handle
  Metal Decking,                          !- Name
  MediumSmooth,                           !- Roughness
  0.0015,                                 !- Thickness {m}
  45.006,                                 !- Conductivity {W/m-K}
  7680,                                   !- Density {kg/m3}
  418.4,                                  !- Specific Heat {J/kg-K}
  0.9,                                    !- Thermal Absorptance
  0.6,                                    !- Solar Absorptance
  0.6;                                    !- Visible Absorptance

OS:StandardsInformation:Material,
  {f6a68f8f-2d22-4fb2-8821-f3bae34fc20e}, !- Handle
  {6ec72926-2943-4468-b0d1-03545a3e623b}; !- Material Name

OS:Construction,
  {37e2acb9-73a4-4802-b8a4-795454c2d1fa}, !- Handle
  ASHRAE 189.1-2009 ExtRoof IEAD ClimateZone 2-5, !- Name
  ,                                       !- Surface Rendering Name
  {ecef206b-ecab-465f-b4cb-48f8fb606882}, !- Layer 1
  {65d022f2-5007-4675-9b9d-5363cbf469c5}, !- Layer 2
  {6ec72926-2943-4468-b0d1-03545a3e623b}; !- Layer 3

OS:StandardsInformation:Construction,
  {fcc219d7-681d-4452-9681-e058ce5c2e90}, !- Handle
  {37e2acb9-73a4-4802-b8a4-795454c2d1fa}, !- Construction Name
  ExteriorRoof,                           !- Intended Surface Type
  IEAD,                                   !- Standards Construction Type
  ,                                       !- Perturbable Layer
  ,                                       !- Perturbable Layer Type
  ,                                       !- Other Perturbable Layer Type
  ASHRAE 189.1-2009;                      !- Construction Standard

OS:Material,
  {65d022f2-5007-4675-9b9d-5363cbf469c5}, !- Handle
  Roof Insulation [21],                   !- Name
  MediumRough,                            !- Roughness
  0.2105,                                 !- Thickness {m}
  0.049,                                  !- Conductivity {W/m-K}
  265,                                    !- Density {kg/m3}
  836.800000000001,                       !- Specific Heat {J/kg-K}
  0.9,                                    !- Thermal Absorptance
  0.7,                                    !- Solar Absorptance
  0.7;                                    !- Visible Absorptance

OS:StandardsInformation:Material,
  {db77350b-83d1-4e03-a7ff-42adc83fa694}, !- Handle
  {65d022f2-5007-4675-9b9d-5363cbf469c5}; !- Material Name

OS:Construction,
  {69204ecd-6106-4092-a69d-fa72218b5d86}, !- Handle
  ASHRAE 189.1-2009 ExtRoof IEAD ClimateZone 6, !- Name
  ,                                       !- Surface Rendering Name
  {ecef206b-ecab-465f-b4cb-48f8fb606882}, !- Layer 1
  {a3237b2f-a3cd-401c-86c8-f971f175f3ac}, !- Layer 2
  {6ec72926-2943-4468-b0d1-03545a3e623b}; !- Layer 3

OS:StandardsInformation:Construction,
  {f694dce3-a62d-44e9-b342-215f175ba7f2}, !- Handle
  {69204ecd-6106-4092-a69d-fa72218b5d86}, !- Construction Name
  ExteriorRoof,                           !- Intended Surface Type
  IEAD,                                   !- Standards Construction Type
  ,                                       !- Perturbable Layer
  ,                                       !- Perturbable Layer Type
  ,                                       !- Other Perturbable Layer Type
  ASHRAE 189.1-2009;                      !- Construction Standard

OS:Material,
  {a3237b2f-a3cd-401c-86c8-f971f175f3ac}, !- Handle
  Roof Insulation [24],                   !- Name
  MediumRough,                            !- Roughness
  0.260100000000001,                      !- Thickness {m}
  0.049,                                  !- Conductivity {W/m-K}
  265,                                    !- Density {kg/m3}
  836.800000000001,                       !- Specific Heat {J/kg-K}
  0.9,                                    !- Thermal Absorptance
  0.7,                                    !- Solar Absorptance
  0.7;                                    !- Visible Absorptance

OS:StandardsInformation:Material,
  {6c180a88-bf12-4e1c-971a-e1b19423a73f}, !- Handle
  {a3237b2f-a3cd-401c-86c8-f971f175f3ac}; !- Material Name

OS:Construction,
  {e19038d5-ccb2-4f5b-8d69-54d035b0f77f}, !- Handle
  ASHRAE 189.1-2009 ExtRoof IEAD ClimateZone 7-8, !- Name
  ,                                       !- Surface Rendering Name
  {ecef206b-ecab-465f-b4cb-48f8fb606882}, !- Layer 1
  {18fbecfa-90a6-4fde-acea-31b7d108dd58}, !- Layer 2
  {6ec72926-2943-4468-b0d1-03545a3e623b}; !- Layer 3

OS:StandardsInformation:Construction,
  {24e614c5-fbc1-44bd-b064-00c2247b318e}, !- Handle
  {e19038d5-ccb2-4f5b-8d69-54d035b0f77f}, !- Construction Name
  ExteriorRoof,                           !- Intended Surface Type
  IEAD,                                   !- Standards Construction Type
  ,                                       !- Perturbable Layer
  ,                                       !- Perturbable Layer Type
  ,                                       !- Other Perturbable Layer Type
  ASHRAE 189.1-2009;                      !- Construction Standard

OS:Material,
  {18fbecfa-90a6-4fde-acea-31b7d108dd58}, !- Handle
  Roof Insulation [26],                   !- Name
  MediumRough,                            !- Roughness
  0.2941,                                 !- Thickness {m}
  0.049,                                  !- Conductivity {W/m-K}
  265,                                    !- Density {kg/m3}
  836.800000000001,                       !- Specific Heat {J/kg-K}
  0.9,                                    !- Thermal Absorptance
  0.7,                                    !- Solar Absorptance
  0.7;                                    !- Visible Absorptance

OS:StandardsInformation:Material,
  {3e5c237f-2f52-4a66-894c-ac8bf06beded}, !- Handle
  {18fbecfa-90a6-4fde-acea-31b7d108dd58}; !- Material Name

OS:Construction,
  {a8c0c4c1-5686-4762-85d9-a935a3f699fa}, !- Handle
  ASHRAE 189.1-2009 ExtRoof Metal ClimateZone 1, !- Name
  ,                                       !- Surface Rendering Name
  {840fead0-728e-412f-89a2-b49099510e64}, !- Layer 1
  {5fca7656-e531-4d6e-b3a5-a27d8c5b6f46}, !- Layer 2
  {6ec72926-2943-4468-b0d1-03545a3e623b}; !- Layer 3

OS:StandardsInformation:Construction,
  {8bc88b02-09e7-4d5f-9f47-833c9321f916}, !- Handle
  {a8c0c4c1-5686-4762-85d9-a935a3f699fa}, !- Construction Name
  ExteriorRoof,                           !- Intended Surface Type
  Metal,                                  !- Standards Construction Type
  ,                                       !- Perturbable Layer
  ,                                       !- Perturbable Layer Type
  ,                                       !- Other Perturbable Layer Type
  ASHRAE 189.1-2009;                      !- Construction Standard

OS:Material,
  {840fead0-728e-412f-89a2-b49099510e64}, !- Handle
  Metal Roofing,                          !- Name
  MediumSmooth,                           !- Roughness
  0.0015,                                 !- Thickness {m}
  45.006,                                 !- Conductivity {W/m-K}
  7680,                                   !- Density {kg/m3}
  418.4,                                  !- Specific Heat {J/kg-K}
  0.9,                                    !- Thermal Absorptance
  0.6,                                    !- Solar Absorptance
  0.6;                                    !- Visible Absorptance

OS:StandardsInformation:Material,
  {1a282b1d-96a4-4ba3-b97f-1dd42d7dccee}, !- Handle
  {840fead0-728e-412f-89a2-b49099510e64}; !- Material Name

OS:Material,
  {5fca7656-e531-4d6e-b3a5-a27d8c5b6f46}, !- Handle
  Roof Insulation [19],                   !- Name
  MediumRough,                            !- Roughness
  0.1868,                                 !- Thickness {m}
  0.049,                                  !- Conductivity {W/m-K}
  265,                                    !- Density {kg/m3}
  836.800000000001,                       !- Specific Heat {J/kg-K}
  0.9,                                    !- Thermal Absorptance
  0.7,                                    !- Solar Absorptance
  0.7;                                    !- Visible Absorptance

OS:StandardsInformation:Material,
  {86685d0e-aee2-466c-9e79-dbd1a2cebd1a}, !- Handle
  {5fca7656-e531-4d6e-b3a5-a27d8c5b6f46}; !- Material Name

OS:Construction,
  {590a26a0-49ed-4fdc-88ba-1cd6807c7d2f}, !- Handle
  ASHRAE 189.1-2009 ExtRoof Metal ClimateZone 2-5, !- Name
  ,                                       !- Surface Rendering Name
  {840fead0-728e-412f-89a2-b49099510e64}, !- Layer 1
  {3b4b3d20-be24-4e73-b2b8-92e4a7b60bf2}, !- Layer 2
  {6ec72926-2943-4468-b0d1-03545a3e623b}; !- Layer 3

OS:StandardsInformation:Construction,
  {6f70b8ba-5307-46c3-afb7-8916ec03f133}, !- Handle
  {590a26a0-49ed-4fdc-88ba-1cd6807c7d2f}, !- Construction Name
  ExteriorRoof,                           !- Intended Surface Type
  Metal,                                  !- Standards Construction Type
  ,                                       !- Perturbable Layer
  ,                                       !- Perturbable Layer Type
  ,                                       !- Other Perturbable Layer Type
  ASHRAE 189.1-2009;                      !- Construction Standard

OS:Material,
  {3b4b3d20-be24-4e73-b2b8-92e4a7b60bf2}, !- Handle
  Roof Insulation [22],                   !- Name
  MediumRough,                            !- Roughness
  0.2358,                                 !- Thickness {m}
  0.049,                                  !- Conductivity {W/m-K}
  265,                                    !- Density {kg/m3}
  836.800000000001,                       !- Specific Heat {J/kg-K}
  0.9,                                    !- Thermal Absorptance
  0.7,                                    !- Solar Absorptance
  0.7;                                    !- Visible Absorptance

OS:StandardsInformation:Material,
  {bbca375b-60ac-4418-9e1a-f02daed010f2}, !- Handle
  {3b4b3d20-be24-4e73-b2b8-92e4a7b60bf2}; !- Material Name

OS:Construction,
  {67aec41b-1873-4245-8c57-9a7b2d0a19c6}, !- Handle
  ASHRAE 189.1-2009 ExtRoof Metal ClimateZone 6, !- Name
  ,                                       !- Surface Rendering Name
  {840fead0-728e-412f-89a2-b49099510e64}, !- Layer 1
  {08e4bed6-b7cc-4985-a953-55440d3f1a7e}, !- Layer 2
  {6ec72926-2943-4468-b0d1-03545a3e623b}; !- Layer 3

OS:StandardsInformation:Construction,
  {13184392-9933-4cb6-aa65-e64ff84689fb}, !- Handle
  {67aec41b-1873-4245-8c57-9a7b2d0a19c6}, !- Construction Name
  ExteriorRoof,                           !- Intended Surface Type
  Metal,                                  !- Standards Construction Type
  ,                                       !- Perturbable Layer
  ,                                       !- Perturbable Layer Type
  ,                                       !- Other Perturbable Layer Type
  ASHRAE 189.1-2009;                      !- Construction Standard

OS:Material,
  {08e4bed6-b7cc-4985-a953-55440d3f1a7e}, !- Handle
  Roof Insulation [25],                   !- Name
  MediumRough,                            !- Roughness
  0.263,                                  !- Thickness {m}
  0.049,                                  !- Conductivity {W/m-K}
  265,                                    !- Density {kg/m3}
  836.800000000001,                       !- Specific Heat {J/kg-K}
  0.9,                                    !- Thermal Absorptance
  0.7,                                    !- Solar Absorptance
  0.7;                                    !- Visible Absorptance

OS:StandardsInformation:Material,
  {2a28c90a-d01f-437c-b1ad-aedf5f04d4a7}, !- Handle
  {08e4bed6-b7cc-4985-a953-55440d3f1a7e}; !- Material Name

OS:Construction,
  {1c5b62f1-636c-4e34-b4f9-15056aefcf83}, !- Handle
  ASHRAE 189.1-2009 ExtRoof Metal ClimateZone 7-8, !- Name
  ,                                       !- Surface Rendering Name
  {840fead0-728e-412f-89a2-b49099510e64}, !- Layer 1
  {3938fef5-2605-4344-9962-018061d33944}, !- Layer 2
  {6ec72926-2943-4468-b0d1-03545a3e623b}; !- Layer 3

OS:StandardsInformation:Construction,
  {f5cb0083-633f-4c95-a3af-b812faa9517b}, !- Handle
  {1c5b62f1-636c-4e34-b4f9-15056aefcf83}, !- Construction Name
  ExteriorRoof,                           !- Intended Surface Type
  Metal,                                  !- Standards Construction Type
  ,                                       !- Perturbable Layer
  ,                                       !- Perturbable Layer Type
  ,                                       !- Other Perturbable Layer Type
  ASHRAE 189.1-2009;                      !- Construction Standard

OS:Material,
  {3938fef5-2605-4344-9962-018061d33944}, !- Handle
  Roof Insulation [27],                   !- Name
  MediumRough,                            !- Roughness
  0.297000000000001,                      !- Thickness {m}
  0.049,                                  !- Conductivity {W/m-K}
  265,                                    !- Density {kg/m3}
  836.800000000001,                       !- Specific Heat {J/kg-K}
  0.9,                                    !- Thermal Absorptance
  0.7,                                    !- Solar Absorptance
  0.7;                                    !- Visible Absorptance

OS:StandardsInformation:Material,
  {c906dac4-b766-4f69-b260-799a9ff3aebb}, !- Handle
  {3938fef5-2605-4344-9962-018061d33944}; !- Material Name

OS:Construction,
  {d22c575a-068b-4db0-9ff0-cb86bff64477}, !- Handle
  ASHRAE 189.1-2009 ExtWall Mass ClimateZone 1, !- Name
  ,                                       !- Surface Rendering Name
  {360d620a-41ee-4385-95af-fab25c4601db}, !- Layer 1
  {00e0c607-7a43-4d18-b6ac-2abbd2674efc}, !- Layer 2
  {6c65d4fb-3b85-43a1-b723-6411d2b9fdb9}, !- Layer 3
  {2c36bbe8-bf82-4572-9889-50fd21ac7b5e}; !- Layer 4

OS:StandardsInformation:Construction,
  {5cc2d708-8b81-474b-b058-5e94bc38643d}, !- Handle
  {d22c575a-068b-4db0-9ff0-cb86bff64477}, !- Construction Name
  ExteriorWall,                           !- Intended Surface Type
  Mass,                                   !- Standards Construction Type
  ,                                       !- Perturbable Layer
  ,                                       !- Perturbable Layer Type
  ,                                       !- Other Perturbable Layer Type
  ASHRAE 189.1-2009;                      !- Construction Standard

OS:Material,
  {360d620a-41ee-4385-95af-fab25c4601db}, !- Handle
  1IN Stucco,                             !- Name
  Smooth,                                 !- Roughness
  0.0253,                                 !- Thickness {m}
  0.691799999999999,                      !- Conductivity {W/m-K}
  1858,                                   !- Density {kg/m3}
  836.999999999999,                       !- Specific Heat {J/kg-K}
  0.9,                                    !- Thermal Absorptance
  0.92,                                   !- Solar Absorptance
  0.92;                                   !- Visible Absorptance

OS:StandardsInformation:Material,
  {8cca838d-afbb-4d24-aa6c-2add59cef7b5}, !- Handle
  {360d620a-41ee-4385-95af-fab25c4601db}; !- Material Name

OS:Material,
  {00e0c607-7a43-4d18-b6ac-2abbd2674efc}, !- Handle
  8IN Concrete HW,                        !- Name
  MediumRough,                            !- Roughness
  0.2033,                                 !- Thickness {m}
  1.72959999999999,                       !- Conductivity {W/m-K}
  2242.99999999999,                       !- Density {kg/m3}
  836.999999999999,                       !- Specific Heat {J/kg-K}
  0.9,                                    !- Thermal Absorptance
  0.65,                                   !- Solar Absorptance
  0.65;                                   !- Visible Absorptance

OS:StandardsInformation:Material,
  {44aee5af-b488-4299-bf36-4bca4dcb17f0}, !- Handle
  {00e0c607-7a43-4d18-b6ac-2abbd2674efc}; !- Material Name

OS:Material,
  {6c65d4fb-3b85-43a1-b723-6411d2b9fdb9}, !- Handle
  Wall Insulation [31],                   !- Name
  MediumRough,                            !- Roughness
  0.0337000000000001,                     !- Thickness {m}
  0.0432,                                 !- Conductivity {W/m-K}
  91,                                     !- Density {kg/m3}
  836.999999999999,                       !- Specific Heat {J/kg-K}
  0.9,                                    !- Thermal Absorptance
  0.5,                                    !- Solar Absorptance
  0.5;                                    !- Visible Absorptance

OS:StandardsInformation:Material,
  {e7c4a08f-fb54-479c-bf94-81f6f31a4eba}, !- Handle
  {6c65d4fb-3b85-43a1-b723-6411d2b9fdb9}; !- Material Name

OS:Construction,
  {ab3e53da-3734-444d-8cef-d6fbf8ea6e7e}, !- Handle
  ASHRAE 189.1-2009 ExtWall Mass ClimateZone 2, !- Name
  ,                                       !- Surface Rendering Name
  {360d620a-41ee-4385-95af-fab25c4601db}, !- Layer 1
  {00e0c607-7a43-4d18-b6ac-2abbd2674efc}, !- Layer 2
  {eac9c4e6-948b-4abb-9063-edf425012469}, !- Layer 3
  {2c36bbe8-bf82-4572-9889-50fd21ac7b5e}; !- Layer 4

OS:StandardsInformation:Construction,
  {981ee734-2764-4d86-aeb3-9bd3a69f2616}, !- Handle
  {ab3e53da-3734-444d-8cef-d6fbf8ea6e7e}, !- Construction Name
  ExteriorWall,                           !- Intended Surface Type
  Mass,                                   !- Standards Construction Type
  ,                                       !- Perturbable Layer
  ,                                       !- Perturbable Layer Type
  ,                                       !- Other Perturbable Layer Type
  ASHRAE 189.1-2009;                      !- Construction Standard

OS:Material,
  {eac9c4e6-948b-4abb-9063-edf425012469}, !- Handle
  Wall Insulation [35],                   !- Name
  MediumRough,                            !- Roughness
  0.0452,                                 !- Thickness {m}
  0.0432,                                 !- Conductivity {W/m-K}
  91,                                     !- Density {kg/m3}
  836.999999999999,                       !- Specific Heat {J/kg-K}
  0.9,                                    !- Thermal Absorptance
  0.5,                                    !- Solar Absorptance
  0.5;                                    !- Visible Absorptance

OS:StandardsInformation:Material,
  {45147c9d-0275-4fa8-8db4-b530f0cde252}, !- Handle
  {eac9c4e6-948b-4abb-9063-edf425012469}; !- Material Name

OS:Construction,
  {390dab32-220b-4f0e-b3df-8e0138efdd5b}, !- Handle
  ASHRAE 189.1-2009 ExtWall Mass ClimateZone 3, !- Name
  ,                                       !- Surface Rendering Name
  {360d620a-41ee-4385-95af-fab25c4601db}, !- Layer 1
  {00e0c607-7a43-4d18-b6ac-2abbd2674efc}, !- Layer 2
  {ac09513c-d1f0-4429-a43a-762c49e00593}, !- Layer 3
  {2c36bbe8-bf82-4572-9889-50fd21ac7b5e}; !- Layer 4

OS:StandardsInformation:Construction,
  {07f21fb3-7c13-4ec5-8a2a-24251796de5c}, !- Handle
  {390dab32-220b-4f0e-b3df-8e0138efdd5b}, !- Construction Name
  ExteriorWall,                           !- Intended Surface Type
  Mass,                                   !- Standards Construction Type
  ,                                       !- Perturbable Layer
  ,                                       !- Perturbable Layer Type
  ,                                       !- Other Perturbable Layer Type
  ASHRAE 189.1-2009;                      !- Construction Standard

OS:Material,
  {ac09513c-d1f0-4429-a43a-762c49e00593}, !- Handle
  Wall Insulation [36],                   !- Name
  MediumRough,                            !- Roughness
  0.0565999999999999,                     !- Thickness {m}
  0.0432,                                 !- Conductivity {W/m-K}
  91,                                     !- Density {kg/m3}
  836.999999999999,                       !- Specific Heat {J/kg-K}
  0.9,                                    !- Thermal Absorptance
  0.5,                                    !- Solar Absorptance
  0.5;                                    !- Visible Absorptance

OS:StandardsInformation:Material,
  {44ff7718-f990-4e74-88fc-1d05cdaa1b57}, !- Handle
  {ac09513c-d1f0-4429-a43a-762c49e00593}; !- Material Name

OS:Construction,
  {82841422-6e7a-4d56-b360-84c34182c83e}, !- Handle
  ASHRAE 189.1-2009 ExtWall Mass ClimateZone 4, !- Name
  ,                                       !- Surface Rendering Name
  {360d620a-41ee-4385-95af-fab25c4601db}, !- Layer 1
  {00e0c607-7a43-4d18-b6ac-2abbd2674efc}, !- Layer 2
  {d3e5ec62-0b9a-47c5-bf60-cb232896a568}, !- Layer 3
  {2c36bbe8-bf82-4572-9889-50fd21ac7b5e}; !- Layer 4

OS:StandardsInformation:Construction,
  {c5c702e8-b4e8-49ca-aefb-a4d3ca539e1f}, !- Handle
  {82841422-6e7a-4d56-b360-84c34182c83e}, !- Construction Name
  ExteriorWall,                           !- Intended Surface Type
  Mass,                                   !- Standards Construction Type
  ,                                       !- Perturbable Layer
  ,                                       !- Perturbable Layer Type
  ,                                       !- Other Perturbable Layer Type
  ASHRAE 189.1-2009;                      !- Construction Standard

OS:Material,
  {d3e5ec62-0b9a-47c5-bf60-cb232896a568}, !- Handle
  Wall Insulation [37],                   !- Name
  MediumRough,                            !- Roughness
  0.0680999999999999,                     !- Thickness {m}
  0.0432,                                 !- Conductivity {W/m-K}
  91,                                     !- Density {kg/m3}
  836.999999999999,                       !- Specific Heat {J/kg-K}
  0.9,                                    !- Thermal Absorptance
  0.5,                                    !- Solar Absorptance
  0.5;                                    !- Visible Absorptance

OS:StandardsInformation:Material,
  {c561bec5-a680-4528-90ac-ab88136c842e}, !- Handle
  {d3e5ec62-0b9a-47c5-bf60-cb232896a568}; !- Material Name

OS:Construction,
  {32d06293-a4d2-4d75-bee0-4242b192e76f}, !- Handle
  ASHRAE 189.1-2009 ExtWall Mass ClimateZone 5, !- Name
  ,                                       !- Surface Rendering Name
  {360d620a-41ee-4385-95af-fab25c4601db}, !- Layer 1
  {00e0c607-7a43-4d18-b6ac-2abbd2674efc}, !- Layer 2
  {f467f9f8-24cd-4e3f-9b51-4b58cff1b7bd}, !- Layer 3
  {2c36bbe8-bf82-4572-9889-50fd21ac7b5e}; !- Layer 4

OS:StandardsInformation:Construction,
  {a9dfe3ce-2a5a-402a-85f0-18e0d54f106c}, !- Handle
  {32d06293-a4d2-4d75-bee0-4242b192e76f}, !- Construction Name
  ExteriorWall,                           !- Intended Surface Type
  Mass,                                   !- Standards Construction Type
  ,                                       !- Perturbable Layer
  ,                                       !- Perturbable Layer Type
  ,                                       !- Other Perturbable Layer Type
  ASHRAE 189.1-2009;                      !- Construction Standard

OS:Material,
  {f467f9f8-24cd-4e3f-9b51-4b58cff1b7bd}, !- Handle
  Wall Insulation [40],                   !- Name
  MediumRough,                            !- Roughness
  0.0793999999999999,                     !- Thickness {m}
  0.0432,                                 !- Conductivity {W/m-K}
  91,                                     !- Density {kg/m3}
  836.999999999999,                       !- Specific Heat {J/kg-K}
  0.9,                                    !- Thermal Absorptance
  0.5,                                    !- Solar Absorptance
  0.5;                                    !- Visible Absorptance

OS:StandardsInformation:Material,
  {64fdae0b-cbe2-4ea6-8cee-19de46520792}, !- Handle
  {f467f9f8-24cd-4e3f-9b51-4b58cff1b7bd}; !- Material Name

OS:Construction,
  {fa91a255-e677-44dc-8dbd-a234f676019f}, !- Handle
  ASHRAE 189.1-2009 ExtWall Mass ClimateZone 6, !- Name
  ,                                       !- Surface Rendering Name
  {360d620a-41ee-4385-95af-fab25c4601db}, !- Layer 1
  {00e0c607-7a43-4d18-b6ac-2abbd2674efc}, !- Layer 2
  {2f231695-2820-4136-97b8-d2c0b0ab4c54}, !- Layer 3
  {2c36bbe8-bf82-4572-9889-50fd21ac7b5e}; !- Layer 4

OS:StandardsInformation:Construction,
  {40549abf-3149-4e52-aee9-a7d648f1558d}, !- Handle
  {fa91a255-e677-44dc-8dbd-a234f676019f}, !- Construction Name
  ExteriorWall,                           !- Intended Surface Type
  Mass,                                   !- Standards Construction Type
  ,                                       !- Perturbable Layer
  ,                                       !- Perturbable Layer Type
  ,                                       !- Other Perturbable Layer Type
  ASHRAE 189.1-2009;                      !- Construction Standard

OS:Material,
  {2f231695-2820-4136-97b8-d2c0b0ab4c54}, !- Handle
  Wall Insulation [42],                   !- Name
  MediumRough,                            !- Roughness
  0.0913999999999999,                     !- Thickness {m}
  0.0432,                                 !- Conductivity {W/m-K}
  91,                                     !- Density {kg/m3}
  836.999999999999,                       !- Specific Heat {J/kg-K}