
OS:Version,
  {4bec4303-0e5e-4b18-aa78-de2a55829b37}, !- Handle
  1.3.0;                                  !- Version Identifier

OS:Construction,
  {9a5bed55-7b70-49ff-998e-b4980ecf8345}, !- Handle
  ASHRAE 189.1-2009 AtticFloor ClimateZone 1-8, !- Name
  ,                                       !- Surface Rendering Name
  {b85c1fe7-74bc-45dc-8916-c883398c110c}, !- Layer 1
  {110da511-9ae2-449e-82e7-3fa9789cc4d5}, !- Layer 2
  {b85c1fe7-74bc-45dc-8916-c883398c110c}; !- Layer 3

OS:StandardsInformation:Construction,
  {8b05ca16-cec7-49e6-8005-01100a5460f4}, !- Handle
  {9a5bed55-7b70-49ff-998e-b4980ecf8345}, !- Construction Name
  AtticFloor,                             !- Intended Surface Type
  WoodFramed;                             !- Standards Construction Type

OS:Material,
  {b85c1fe7-74bc-45dc-8916-c883398c110c}, !- Handle
  1/2IN Gypsum,                           !- Name
  Smooth,                                 !- Roughness
  0.0127,                                 !- Thickness {m}
  0.16,                                   !- Conductivity {W/m-K}
  784.9,                                  !- Density {kg/m3}
  830.000000000001,                       !- Specific Heat {J/kg-K}
  0.9,                                    !- Thermal Absorptance
  0.92,                                   !- Solar Absorptance
  0.92;                                   !- Visible Absorptance

OS:Material,
  {110da511-9ae2-449e-82e7-3fa9789cc4d5}, !- Handle
  AtticFloor Insulation,                  !- Name
  MediumRough,                            !- Roughness
  0.2379,                                 !- Thickness {m}
  0.049,                                  !- Conductivity {W/m-K}
  265,                                    !- Density {kg/m3}
  836.800000000001,                       !- Specific Heat {J/kg-K}
  0.9,                                    !- Thermal Absorptance
  0.7,                                    !- Solar Absorptance
  0.7;                                    !- Visible Absorptance

OS:Construction,
  {b955741c-2a02-482a-b6fa-15deb841ce7a}, !- Handle
  ASHRAE 189.1-2009 ExtRoof IEAD ClimateZone 1, !- Name
  ,                                       !- Surface Rendering Name
  {88b799a2-026f-4a7a-8ff2-5dd5d78bc890}, !- Layer 1
  {fdc5189e-abe0-4561-9315-5e1723d0d384}, !- Layer 2
  {e37624a1-cbf4-4e8c-b0b1-37d8b0fbef37}; !- Layer 3

OS:StandardsInformation:Construction,
  {db581089-ade5-4e66-be1b-503e7e1e6ace}, !- Handle
  {b955741c-2a02-482a-b6fa-15deb841ce7a}, !- Construction Name
  ExteriorRoof,                           !- Intended Surface Type
  IEAD;                                   !- Standards Construction Type

OS:Material,
  {88b799a2-026f-4a7a-8ff2-5dd5d78bc890}, !- Handle
  Roof Membrane,                          !- Name
  VeryRough,                              !- Roughness
  0.0095,                                 !- Thickness {m}
  0.16,                                   !- Conductivity {W/m-K}
  1121.29,                                !- Density {kg/m3}
  1460,                                   !- Specific Heat {J/kg-K}
  0.9,                                    !- Thermal Absorptance
  0.7,                                    !- Solar Absorptance
  0.7;                                    !- Visible Absorptance

OS:Material,
  {fdc5189e-abe0-4561-9315-5e1723d0d384}, !- Handle
  Roof Insulation [18],                   !- Name
  MediumRough,                            !- Roughness
  0.1693,                                 !- Thickness {m}
  0.049,                                  !- Conductivity {W/m-K}
  265,                                    !- Density {kg/m3}
  836.800000000001,                       !- Specific Heat {J/kg-K}
  0.9,                                    !- Thermal Absorptance
  0.7,                                    !- Solar Absorptance
  0.7;                                    !- Visible Absorptance

OS:Material,
  {e37624a1-cbf4-4e8c-b0b1-37d8b0fbef37}, !- Handle
  Metal Decking,                          !- Name
  MediumSmooth,                           !- Roughness
  0.0015,                                 !- Thickness {m}
  45.006,                                 !- Conductivity {W/m-K}
  7680,                                   !- Density {kg/m3}
  418.4,                                  !- Specific Heat {J/kg-K}
  0.9,                                    !- Thermal Absorptance
  0.7,                                    !- Solar Absorptance
  0.3;                                    !- Visible Absorptance

OS:Construction,
  {c38c7a58-ce02-4846-b9ab-a067a92b058b}, !- Handle
  ASHRAE 189.1-2009 ExtRoof IEAD ClimateZone 2-5, !- Name
  ,                                       !- Surface Rendering Name
  {88b799a2-026f-4a7a-8ff2-5dd5d78bc890}, !- Layer 1
  {18406d47-2b46-4edc-9af1-aad9ef2bbfea}, !- Layer 2
  {e37624a1-cbf4-4e8c-b0b1-37d8b0fbef37}; !- Layer 3

OS:StandardsInformation:Construction,
  {701f0d18-35ec-4559-a7a7-f4b060baa536}, !- Handle
  {c38c7a58-ce02-4846-b9ab-a067a92b058b}, !- Construction Name
  ExteriorRoof,                           !- Intended Surface Type
  IEAD;                                   !- Standards Construction Type

OS:Material,
  {18406d47-2b46-4edc-9af1-aad9ef2bbfea}, !- Handle
  Roof Insulation [21],                   !- Name
  MediumRough,                            !- Roughness
  0.2105,                                 !- Thickness {m}
  0.049,                                  !- Conductivity {W/m-K}
  265,                                    !- Density {kg/m3}
  836.800000000001,                       !- Specific Heat {J/kg-K}
  0.9,                                    !- Thermal Absorptance
  0.7,                                    !- Solar Absorptance
  0.7;                                    !- Visible Absorptance

OS:Construction,
  {2c47a8c5-8072-44c1-86ec-4575664b85c9}, !- Handle
  ASHRAE 189.1-2009 ExtRoof IEAD ClimateZone 6, !- Name
  ,                                       !- Surface Rendering Name
  {88b799a2-026f-4a7a-8ff2-5dd5d78bc890}, !- Layer 1
  {7b49d1cb-1767-46af-bd35-5d57242a19b7}, !- Layer 2
  {e37624a1-cbf4-4e8c-b0b1-37d8b0fbef37}; !- Layer 3

OS:StandardsInformation:Construction,
  {75fc6d92-26c1-450c-bfc0-9cc3e2f7b164}, !- Handle
  {2c47a8c5-8072-44c1-86ec-4575664b85c9}, !- Construction Name
  ExteriorRoof,                           !- Intended Surface Type
  IEAD;                                   !- Standards Construction Type

OS:Material,
  {7b49d1cb-1767-46af-bd35-5d57242a19b7}, !- Handle
  Roof Insulation [24],                   !- Name
  MediumRough,                            !- Roughness
  0.260100000000001,                      !- Thickness {m}
  0.049,                                  !- Conductivity {W/m-K}
  265,                                    !- Density {kg/m3}
  836.800000000001,                       !- Specific Heat {J/kg-K}
  0.9,                                    !- Thermal Absorptance
  0.7,                                    !- Solar Absorptance
  0.7;                                    !- Visible Absorptance

OS:Construction,
  {441bc38e-cdb6-40a9-8ae8-4fe8aa8b1ad5}, !- Handle
  ASHRAE 189.1-2009 ExtRoof IEAD ClimateZone 7-8, !- Name
  ,                                       !- Surface Rendering Name
  {88b799a2-026f-4a7a-8ff2-5dd5d78bc890}, !- Layer 1
  {24fe734b-163b-4f78-833a-700b02cdbae5}, !- Layer 2
  {e37624a1-cbf4-4e8c-b0b1-37d8b0fbef37}; !- Layer 3

OS:StandardsInformation:Construction,
  {35685454-259d-4f5f-9fae-066403f028f0}, !- Handle
  {441bc38e-cdb6-40a9-8ae8-4fe8aa8b1ad5}, !- Construction Name
  ExteriorRoof,                           !- Intended Surface Type
  IEAD;                                   !- Standards Construction Type

OS:Material,
  {24fe734b-163b-4f78-833a-700b02cdbae5}, !- Handle
  Roof Insulation [26],                   !- Name
  MediumRough,                            !- Roughness
  0.2941,                                 !- Thickness {m}
  0.049,                                  !- Conductivity {W/m-K}
  265,                                    !- Density {kg/m3}
  836.800000000001,                       !- Specific Heat {J/kg-K}
  0.9,                                    !- Thermal Absorptance
  0.7,                                    !- Solar Absorptance
  0.7;                                    !- Visible Absorptance

OS:Construction,
  {9a5bc0d0-f0c4-41cb-ab1b-086296b4e731}, !- Handle
  ASHRAE 189.1-2009 ExtRoof Metal ClimateZone 1, !- Name
  ,                                       !- Surface Rendering Name
  {c0dabc1f-c3e6-49a7-a306-68bb0f67b082}, !- Layer 1
  {cb6e2011-df33-4170-9f43-438940ca7d66}; !- Layer 2

OS:StandardsInformation:Construction,
  {03892fe5-0f97-4c3f-aa32-539013b4ad2f}, !- Handle
  {9a5bc0d0-f0c4-41cb-ab1b-086296b4e731}, !- Construction Name
  ExteriorRoof,                           !- Intended Surface Type
  Metal;                                  !- Standards Construction Type

OS:Material,
  {c0dabc1f-c3e6-49a7-a306-68bb0f67b082}, !- Handle
  Metal Roofing,                          !- Name
  MediumSmooth,                           !- Roughness
  0.0015,                                 !- Thickness {m}
  45.006,                                 !- Conductivity {W/m-K}
  7680,                                   !- Density {kg/m3}
  418.4,                                  !- Specific Heat {J/kg-K}
  0.9,                                    !- Thermal Absorptance
  0.3,                                    !- Solar Absorptance
  0.3;                                    !- Visible Absorptance

OS:Material,
  {cb6e2011-df33-4170-9f43-438940ca7d66}, !- Handle
  Roof Insulation [19],                   !- Name
  MediumRough,                            !- Roughness
  0.1868,                                 !- Thickness {m}
  0.049,                                  !- Conductivity {W/m-K}
  265,                                    !- Density {kg/m3}
  836.800000000001,                       !- Specific Heat {J/kg-K}
  0.9,                                    !- Thermal Absorptance
  0.7,                                    !- Solar Absorptance
  0.7;                                    !- Visible Absorptance

OS:Construction,
  {3b897975-adda-4e12-a7f2-3d974fc8b90a}, !- Handle
  ASHRAE 189.1-2009 ExtRoof Metal ClimateZone 2-5, !- Name
  ,                                       !- Surface Rendering Name
  {c0dabc1f-c3e6-49a7-a306-68bb0f67b082}, !- Layer 1
  {67089b9f-c3f2-46dd-93c3-da97bec6b9de}; !- Layer 2

OS:StandardsInformation:Construction,
  {d9cd65c6-c29d-413b-9ac6-716dcd044c0f}, !- Handle
  {3b897975-adda-4e12-a7f2-3d974fc8b90a}, !- Construction Name
  ExteriorRoof,                           !- Intended Surface Type
  Metal;                                  !- Standards Construction Type

OS:Material,
  {67089b9f-c3f2-46dd-93c3-da97bec6b9de}, !- Handle
  Roof Insulation [22],                   !- Name
  MediumRough,                            !- Roughness
  0.2358,                                 !- Thickness {m}
  0.049,                                  !- Conductivity {W/m-K}
  265,                                    !- Density {kg/m3}
  836.800000000001,                       !- Specific Heat {J/kg-K}
  0.9,                                    !- Thermal Absorptance
  0.7,                                    !- Solar Absorptance
  0.7;                                    !- Visible Absorptance

OS:Construction,
  {fe84bfa1-6023-4d99-af68-359dc77a84f3}, !- Handle
  ASHRAE 189.1-2009 ExtRoof Metal ClimateZone 6, !- Name
  ,                                       !- Surface Rendering Name
  {c0dabc1f-c3e6-49a7-a306-68bb0f67b082}, !- Layer 1
  {a67cfc58-0216-4120-89e0-f97ee5e006b8}; !- Layer 2

OS:StandardsInformation:Construction,
  {7c5ea161-0591-4191-98fb-dc69a3355511}, !- Handle
  {fe84bfa1-6023-4d99-af68-359dc77a84f3}, !- Construction Name
  ExteriorRoof,                           !- Intended Surface Type
  Metal;                                  !- Standards Construction Type

OS:Material,
  {a67cfc58-0216-4120-89e0-f97ee5e006b8}, !- Handle
  Roof Insulation [25],                   !- Name
  MediumRough,                            !- Roughness
  0.263,                                  !- Thickness {m}
  0.049,                                  !- Conductivity {W/m-K}
  265,                                    !- Density {kg/m3}
  836.800000000001,                       !- Specific Heat {J/kg-K}
  0.9,                                    !- Thermal Absorptance
  0.7,                                    !- Solar Absorptance
  0.7;                                    !- Visible Absorptance

OS:Construction,
  {b12049db-1ab9-412c-bcf0-49d5a16cd7bc}, !- Handle
  ASHRAE 189.1-2009 ExtRoof Metal ClimateZone 7-8, !- Name
  ,                                       !- Surface Rendering Name
  {c0dabc1f-c3e6-49a7-a306-68bb0f67b082}, !- Layer 1
  {fc3f5424-9f6d-416f-9b80-9e0aa491995d}; !- Layer 2

OS:StandardsInformation:Construction,
  {7e90c3da-28b8-44ed-bd2a-14a50c5fc4c2}, !- Handle
  {b12049db-1ab9-412c-bcf0-49d5a16cd7bc}, !- Construction Name
  ExteriorRoof,                           !- Intended Surface Type
  Metal;                                  !- Standards Construction Type

OS:Material,
  {fc3f5424-9f6d-416f-9b80-9e0aa491995d}, !- Handle
  Roof Insulation [27],                   !- Name
  MediumRough,                            !- Roughness
  0.297000000000001,                      !- Thickness {m}
  0.049,                                  !- Conductivity {W/m-K}
  265,                                    !- Density {kg/m3}
  836.800000000001,                       !- Specific Heat {J/kg-K}
  0.9,                                    !- Thermal Absorptance
  0.7,                                    !- Solar Absorptance
  0.7;                                    !- Visible Absorptance

OS:Construction,
  {85e81799-1f1d-4629-b13d-e6a11169f64b}, !- Handle
  ASHRAE 189.1-2009 ExtWall Mass ClimateZone 1, !- Name
  ,                                       !- Surface Rendering Name
  {5f2d1838-160b-4812-8c43-8f2807ae3fce}, !- Layer 1
  {96c81525-5ad3-4f9c-a262-43f814a374bf}, !- Layer 2
  {00869cf6-3981-4e46-b238-70062212e587}, !- Layer 3
  {b85c1fe7-74bc-45dc-8916-c883398c110c}; !- Layer 4

OS:StandardsInformation:Construction,
  {9b7073cd-a84f-4837-a148-bc286fbdfb60}, !- Handle
  {85e81799-1f1d-4629-b13d-e6a11169f64b}, !- Construction Name
  ExteriorWall,                           !- Intended Surface Type
  Mass;                                   !- Standards Construction Type

OS:Material,
  {5f2d1838-160b-4812-8c43-8f2807ae3fce}, !- Handle
  1IN Stucco,                             !- Name
  Smooth,                                 !- Roughness
  0.0253,                                 !- Thickness {m}
  0.691799999999999,                      !- Conductivity {W/m-K}
  1858,                                   !- Density {kg/m3}
  836.999999999999,                       !- Specific Heat {J/kg-K}
  0.9,                                    !- Thermal Absorptance
  0.92,                                   !- Solar Absorptance
  0.92;                                   !- Visible Absorptance

OS:Material,
  {96c81525-5ad3-4f9c-a262-43f814a374bf}, !- Handle
  8IN Concrete HW,                        !- Name
  MediumRough,                            !- Roughness
  0.2033,                                 !- Thickness {m}
  1.72959999999999,                       !- Conductivity {W/m-K}
  2242.99999999999,                       !- Density {kg/m3}
  836.999999999999,                       !- Specific Heat {J/kg-K}
  0.9,                                    !- Thermal Absorptance
  0.65,                                   !- Solar Absorptance
  0.65;                                   !- Visible Absorptance

OS:Material,
  {00869cf6-3981-4e46-b238-70062212e587}, !- Handle
  Wall Insulation [31],                   !- Name
  MediumRough,                            !- Roughness
  0.0337000000000001,                     !- Thickness {m}
  0.0432,                                 !- Conductivity {W/m-K}
  91,                                     !- Density {kg/m3}
  836.999999999999,                       !- Specific Heat {J/kg-K}
  0.9,                                    !- Thermal Absorptance
  0.5,                                    !- Solar Absorptance
  0.5;                                    !- Visible Absorptance

OS:Construction,
  {c1235e2b-6e76-445d-9534-0ddc75a7ced7}, !- Handle
  ASHRAE 189.1-2009 ExtWall Mass ClimateZone 2, !- Name
  ,                                       !- Surface Rendering Name
  {5f2d1838-160b-4812-8c43-8f2807ae3fce}, !- Layer 1
  {96c81525-5ad3-4f9c-a262-43f814a374bf}, !- Layer 2
  {27206da0-0f5e-4da6-8c07-a0522fa88041}, !- Layer 3
  {b85c1fe7-74bc-45dc-8916-c883398c110c}; !- Layer 4

OS:StandardsInformation:Construction,
  {da7677fa-fbbb-48eb-8b82-7f70fc8c1203}, !- Handle
  {c1235e2b-6e76-445d-9534-0ddc75a7ced7}, !- Construction Name
  ExteriorWall,                           !- Intended Surface Type
  Mass;                                   !- Standards Construction Type

OS:Material,
  {27206da0-0f5e-4da6-8c07-a0522fa88041}, !- Handle
  Wall Insulation [35],                   !- Name
  MediumRough,                            !- Roughness
  0.0452,                                 !- Thickness {m}
  0.0432,                                 !- Conductivity {W/m-K}
  91,                                     !- Density {kg/m3}
  836.999999999999,                       !- Specific Heat {J/kg-K}
  0.9,                                    !- Thermal Absorptance
  0.5,                                    !- Solar Absorptance
  0.5;                                    !- Visible Absorptance

OS:Construction,
  {d42a333c-06d4-41f6-8844-0d47527827db}, !- Handle
  ASHRAE 189.1-2009 ExtWall Mass ClimateZone 3, !- Name
  ,                                       !- Surface Rendering Name
  {5f2d1838-160b-4812-8c43-8f2807ae3fce}, !- Layer 1
  {96c81525-5ad3-4f9c-a262-43f814a374bf}, !- Layer 2
  {db46a034-3c2a-4f7a-82cf-294ca66eed66}, !- Layer 3
  {b85c1fe7-74bc-45dc-8916-c883398c110c}; !- Layer 4

OS:StandardsInformation:Construction,
  {4acc30de-dcdb-48a9-96f6-533c0090bb56}, !- Handle
  {d42a333c-06d4-41f6-8844-0d47527827db}, !- Construction Name
  ExteriorWall,                           !- Intended Surface Type
  Mass;                                   !- Standards Construction Type

OS:Material,
  {db46a034-3c2a-4f7a-82cf-294ca66eed66}, !- Handle
  Wall Insulation [36],                   !- Name
  MediumRough,                            !- Roughness
  0.0565999999999999,                     !- Thickness {m}
  0.0432,                                 !- Conductivity {W/m-K}
  91,                                     !- Density {kg/m3}
  836.999999999999,                       !- Specific Heat {J/kg-K}
  0.9,                                    !- Thermal Absorptance
  0.5,                                    !- Solar Absorptance
  0.5;                                    !- Visible Absorptance

OS:Construction,
  {2c9a0678-6f61-42df-8b84-a18b0f74affd}, !- Handle
  ASHRAE 189.1-2009 ExtWall Mass ClimateZone 4, !- Name
  ,                                       !- Surface Rendering Name
  {5f2d1838-160b-4812-8c43-8f2807ae3fce}, !- Layer 1
  {96c81525-5ad3-4f9c-a262-43f814a374bf}, !- Layer 2
  {0b7fa8df-bd05-477d-99d1-ce101c95278f}, !- Layer 3
  {b85c1fe7-74bc-45dc-8916-c883398c110c}; !- Layer 4

OS:StandardsInformation:Construction,
  {81108f7c-5478-486a-9e3d-80dfd361241c}, !- Handle
  {2c9a0678-6f61-42df-8b84-a18b0f74affd}, !- Construction Name
  ExteriorWall,                           !- Intended Surface Type
  Mass;                                   !- Standards Construction Type

OS:Material,
  {0b7fa8df-bd05-477d-99d1-ce101c95278f}, !- Handle
  Wall Insulation [37],                   !- Name
  MediumRough,                            !- Roughness
  0.0680999999999999,                     !- Thickness {m}
  0.0432,                                 !- Conductivity {W/m-K}
  91,                                     !- Density {kg/m3}
  836.999999999999,                       !- Specific Heat {J/kg-K}
  0.9,                                    !- Thermal Absorptance
  0.5,                                    !- Solar Absorptance
  0.5;                                    !- Visible Absorptance

OS:Construction,
  {c1c3f4e8-4b1e-4b5b-89a5-bf584d06d315}, !- Handle
  ASHRAE 189.1-2009 ExtWall Mass ClimateZone 5, !- Name
  ,                                       !- Surface Rendering Name
  {5f2d1838-160b-4812-8c43-8f2807ae3fce}, !- Layer 1
  {96c81525-5ad3-4f9c-a262-43f814a374bf}, !- Layer 2
  {c5813604-684d-4e9e-9d6d-34252f7a2607}, !- Layer 3
  {b85c1fe7-74bc-45dc-8916-c883398c110c}; !- Layer 4

OS:StandardsInformation:Construction,
  {a128ebc3-3d7a-4e6e-9d27-de751efaac76}, !- Handle
  {c1c3f4e8-4b1e-4b5b-89a5-bf584d06d315}, !- Construction Name
  ExteriorWall,                           !- Intended Surface Type
  Mass;                                   !- Standards Construction Type

OS:Material,
  {c5813604-684d-4e9e-9d6d-34252f7a2607}, !- Handle
  Wall Insulation [40],                   !- Name
  MediumRough,                            !- Roughness
  0.0793999999999999,                     !- Thickness {m}
  0.0432,                                 !- Conductivity {W/m-K}
  91,                                     !- Density {kg/m3}
  836.999999999999,                       !- Specific Heat {J/kg-K}
  0.9,                                    !- Thermal Absorptance
  0.5,                                    !- Solar Absorptance
  0.5;                                    !- Visible Absorptance

OS:Construction,
  {0bcdf573-b903-4951-9e63-db9beaacb6ed}, !- Handle
  ASHRAE 189.1-2009 ExtWall Mass ClimateZone 6, !- Name
  ,                                       !- Surface Rendering Name
  {5f2d1838-160b-4812-8c43-8f2807ae3fce}, !- Layer 1
  {96c81525-5ad3-4f9c-a262-43f814a374bf}, !- Layer 2
  {850c0136-4f44-4848-8b70-9fc1a16572cc}, !- Layer 3
  {b85c1fe7-74bc-45dc-8916-c883398c110c}; !- Layer 4

OS:StandardsInformation:Construction,
  {65cae4a1-43e7-45d5-b76a-bfbb64601317}, !- Handle
  {0bcdf573-b903-4951-9e63-db9beaacb6ed}, !- Construction Name
  ExteriorWall,                           !- Intended Surface Type
  Mass;                                   !- Standards Construction Type

OS:Material,
  {850c0136-4f44-4848-8b70-9fc1a16572cc}, !- Handle
  Wall Insulation [42],                   !- Name
  MediumRough,                            !- Roughness
  0.0913999999999999,                     !- Thickness {m}
  0.0432,                                 !- Conductivity {W/m-K}
  91,                                     !- Density {kg/m3}
  836.999999999999,                       !- Specific Heat {J/kg-K}
  0.9,                                    !- Thermal Absorptance
  0.5,                                    !- Solar Absorptance
  0.5;                                    !- Visible Absorptance

OS:Construction,
  {b0316f75-4b12-4ff6-a45d-c639d0998060}, !- Handle
  ASHRAE 189.1-2009 ExtWall Mass ClimateZone 7-8, !- Name
  ,                                       !- Surface Rendering Name
  {5f2d1838-160b-4812-8c43-8f2807ae3fce}, !- Layer 1
  {96c81525-5ad3-4f9c-a262-43f814a374bf}, !- Layer 2
  {310c8dd1-9db1-4e6c-85c1-70dbf1ca7260}, !- Layer 3
  {b85c1fe7-74bc-45dc-8916-c883398c110c}; !- Layer 4

OS:StandardsInformation:Construction,
  {ec48a410-521a-459b-9864-916c935c358e}, !- Handle
  {b0316f75-4b12-4ff6-a45d-c639d0998060}, !- Construction Name
  ExteriorWall,                           !- Intended Surface Type
  Mass;                                   !- Standards Construction Type

OS:Material,
  {310c8dd1-9db1-4e6c-85c1-70dbf1ca7260}, !- Handle
  Wall Insulation [44],                   !- Name
  MediumRough,                            !- Roughness
  0.1104,                                 !- Thickness {m}
  0.0432,                                 !- Conductivity {W/m-K}
  91,                                     !- Density {kg/m3}
  836.999999999999,                       !- Specific Heat {J/kg-K}
  0.9,                                    !- Thermal Absorptance
  0.5,                                    !- Solar Absorptance
  0.5;                                    !- Visible Absorptance

OS:Construction,
  {a9caa739-2d17-476c-b727-6d1de9b5946c}, !- Handle
  ASHRAE 189.1-2009 ExtWall Mass ClimateZone alt-res 1, !- Name
  ,                                       !- Surface Rendering Name
  {5f2d1838-160b-4812-8c43-8f2807ae3fce}, !- Layer 1
  {96c81525-5ad3-4f9c-a262-43f814a374bf}, !- Layer 2
  {27206da0-0f5e-4da6-8c07-a0522fa88041}, !- Layer 3
  {b85c1fe7-74bc-45dc-8916-c883398c110c}; !- Layer 4

OS:StandardsInformation:Construction,
  {2c076c39-da5e-4022-a15f-f1cecc2e5db6}, !- Handle
  {a9caa739-2d17-476c-b727-6d1de9b5946c}, !- Construction Name
  ExteriorWall,                           !- Intended Surface Type
  Mass;                                   !- Standards Construction Type

OS:Construction,
  {57db840b-ca2e-4b2c-81d7-ed6e64f9e835}, !- Handle
  ASHRAE 189.1-2009 ExtWall Mass ClimateZone alt-res 2, !- Name
  ,                                       !- Surface Rendering Name
  {5f2d1838-160b-4812-8c43-8f2807ae3fce}, !- Layer 1
  {96c81525-5ad3-4f9c-a262-43f814a374bf}, !- Layer 2
  {db46a034-3c2a-4f7a-82cf-294ca66eed66}, !- Layer 3
  {b85c1fe7-74bc-45dc-8916-c883398c110c}; !- Layer 4

OS:StandardsInformation:Construction,
  {8258104f-2650-4dee-ba37-2b32df3aaace}, !- Handle
  {57db840b-ca2e-4b2c-81d7-ed6e64f9e835}, !- Construction Name
  ExteriorWall,                           !- Intended Surface Type
  Mass;                                   !- Standards Construction Type

OS:Construction,
  {93c8cadb-5453-44e7-883c-389c6a925417}, !- Handle
  ASHRAE 189.1-2009 ExtWall Mass ClimateZone alt-res 3, !- Name
  ,                                       !- Surface Rendering Name
  {5f2d1838-160b-4812-8c43-8f2807ae3fce}, !- Layer 1
  {96c81525-5ad3-4f9c-a262-43f814a374bf}, !- Layer 2
  {0b7fa8df-bd05-477d-99d1-ce101c95278f}, !- Layer 3
  {b85c1fe7-74bc-45dc-8916-c883398c110c}; !- Layer 4

OS:StandardsInformation:Construction,
  {ed808593-9f12-47d9-8f7b-172fa08fbb04}, !- Handle
  {93c8cadb-5453-44e7-883c-389c6a925417}, !- Construction Name
  ExteriorWall,                           !- Intended Surface Type
  Mass;                                   !- Standards Construction Type

OS:Construction,
  {2390fbef-02c1-4948-8f3a-f3fa8aa01590}, !- Handle
  ASHRAE 189.1-2009 ExtWall Mass ClimateZone alt-res 4, !- Name
  ,                                       !- Surface Rendering Name
  {5f2d1838-160b-4812-8c43-8f2807ae3fce}, !- Layer 1
  {96c81525-5ad3-4f9c-a262-43f814a374bf}, !- Layer 2
  {c5813604-684d-4e9e-9d6d-34252f7a2607}, !- Layer 3
  {b85c1fe7-74bc-45dc-8916-c883398c110c}; !- Layer 4

OS:StandardsInformation:Construction,
  {82bc5c01-4779-4bb0-bbe2-352028cef946}, !- Handle
  {2390fbef-02c1-4948-8f3a-f3fa8aa01590}, !- Construction Name
  ExteriorWall,                           !- Intended Surface Type
  Mass;                                   !- Standards Construction Type

OS:Construction,
  {677ac2ee-90c9-40d3-9ef7-97dc24fa52a7}, !- Handle
  ASHRAE 189.1-2009 ExtWall Mass ClimateZone alt-res 5, !- Name
  ,                                       !- Surface Rendering Name
  {5f2d1838-160b-4812-8c43-8f2807ae3fce}, !- Layer 1
  {96c81525-5ad3-4f9c-a262-43f814a374bf}, !- Layer 2
  {850c0136-4f44-4848-8b70-9fc1a16572cc}, !- Layer 3
  {b85c1fe7-74bc-45dc-8916-c883398c110c}; !- Layer 4

OS:StandardsInformation:Construction,
  {82e58124-6ba7-4aca-adb2-9dadb8ce4ee5}, !- Handle
  {677ac2ee-90c9-40d3-9ef7-97dc24fa52a7}, !- Construction Name
  ExteriorWall,                           !- Intended Surface Type
  Mass;                                   !- Standards Construction Type

OS:Construction,
  {70491b38-a4be-4b5f-92e7-8af4b2abf399}, !- Handle
  ASHRAE 189.1-2009 ExtWall Mass ClimateZone alt-res 6, !- Name
  ,                                       !- Surface Rendering Name
  {5f2d1838-160b-4812-8c43-8f2807ae3fce}, !- Layer 1
  {96c81525-5ad3-4f9c-a262-43f814a374bf}, !- Layer 2
  {310c8dd1-9db1-4e6c-85c1-70dbf1ca7260}, !- Layer 3
  {b85c1fe7-74bc-45dc-8916-c883398c110c}; !- Layer 4

OS:StandardsInformation:Construction,
  {682fec96-fdc3-4a53-abc7-1bd16e11bd15}, !- Handle
  {70491b38-a4be-4b5f-92e7-8af4b2abf399}, !- Construction Name
  ExteriorWall,                           !- Intended Surface Type
  Mass;                                   !- Standards Construction Type

OS:Construction,
  {5d2575ac-8f7f-4dd5-bca7-014660a1f2de}, !- Handle
  ASHRAE 189.1-2009 ExtWall Mass ClimateZone alt-res 7, !- Name
  ,                                       !- Surface Rendering Name
  {5f2d1838-160b-4812-8c43-8f2807ae3fce}, !- Layer 1
  {96c81525-5ad3-4f9c-a262-43f814a374bf}, !- Layer 2
  {310c8dd1-9db1-4e6c-85c1-70dbf1ca7260}, !- Layer 3
  {b85c1fe7-74bc-45dc-8916-c883398c110c}; !- Layer 4

OS:StandardsInformation:Construction,
  {cfa4c87e-272b-452b-acea-780985421334}, !- Handle
  {5d2575ac-8f7f-4dd5-bca7-014660a1f2de}, !- Construction Name
  ExteriorWall,                           !- Intended Surface Type
  Mass;                                   !- Standards Construction Type

OS:Construction,
  {d36937b3-7d32-4a74-bc7f-e878df35ffd8}, !- Handle
  ASHRAE 189.1-2009 ExtWall Mass ClimateZone alt-res 8, !- Name
  ,                                       !- Surface Rendering Name
  {5f2d1838-160b-4812-8c43-8f2807ae3fce}, !- Layer 1
  {96c81525-5ad3-4f9c-a262-43f814a374bf}, !- Layer 2
  {a1278bf8-22a8-4d9a-a97a-4d4e7fd6362c}, !- Layer 3
  {b85c1fe7-74bc-45dc-8916-c883398c110c}; !- Layer 4

OS:StandardsInformation:Construction,
  {5b1640a9-546d-447c-b310-03b4b0560848}, !- Handle
  {d36937b3-7d32-4a74-bc7f-e878df35ffd8}, !- Construction Name
  ExteriorWall,                           !- Intended Surface Type
  Mass;                                   !- Standards Construction Type

OS:Material,
  {a1278bf8-22a8-4d9a-a97a-4d4e7fd6362c}, !- Handle