
OS:Version,
  {a51a2d5b-1771-46db-9eb5-853f118ce0f2}, !- Handle
  1.4.0;                                  !- Version Identifier

OS:Construction,
  {a630e2e3-edd6-4905-8c7c-60ef3307752b}, !- Handle
  ASHRAE 189.1-2009 AtticFloor ClimateZone 1-8, !- Name
  ,                                       !- Surface Rendering Name
  {87faf291-645f-41c3-baf6-f3dd7f998d39}, !- Layer 1
  {ba01732d-cddc-44c7-ad36-5b84fc9c61cc}, !- Layer 2
  {87faf291-645f-41c3-baf6-f3dd7f998d39}; !- Layer 3

OS:StandardsInformation:Construction,
  {e8bb8b75-cf7b-4589-95d9-9ee489c6f829}, !- Handle
  {a630e2e3-edd6-4905-8c7c-60ef3307752b}, !- Construction Name
  AtticFloor,                             !- Intended Surface Type
  WoodFramed;                             !- Standards Construction Type

OS:Material,
  {87faf291-645f-41c3-baf6-f3dd7f998d39}, !- Handle
  1/2IN Gypsum,                           !- Name
  Smooth,                                 !- Roughness
  0.0127,                                 !- Thickness {m}
  0.16,                                   !- Conductivity {W/m-K}
  784.9,                                  !- Density {kg/m3}
  830.000000000001,                       !- Specific Heat {J/kg-K}
  0.9,                                    !- Thermal Absorptance
  0.4,                                    !- Solar Absorptance
  0.4;                                    !- Visible Absorptance

OS:Material,
  {ba01732d-cddc-44c7-ad36-5b84fc9c61cc}, !- Handle
  AtticFloor Insulation,                  !- Name
  MediumRough,                            !- Roughness
  0.2379,                                 !- Thickness {m}
  0.049,                                  !- Conductivity {W/m-K}
  265,                                    !- Density {kg/m3}
  836.800000000001,                       !- Specific Heat {J/kg-K}
  0.9,                                    !- Thermal Absorptance
  0.7,                                    !- Solar Absorptance
  0.7;                                    !- Visible Absorptance

OS:Construction,
  {5fdec69f-3b9f-4a56-adb0-448b7f626485}, !- Handle
  ASHRAE 189.1-2009 ExtRoof IEAD ClimateZone 1, !- Name
  ,                                       !- Surface Rendering Name
  {2b703f40-4282-497a-b0fa-9ec5d4e8107d}, !- Layer 1
  {ec7a01bf-5d93-4001-aebe-c7daf1560f43}, !- Layer 2
  {443a2bcc-fb35-4a25-a7a4-2ff84eeffc62}; !- Layer 3

OS:StandardsInformation:Construction,
  {7df53f41-e839-4560-a65e-4443b22ba0a3}, !- Handle
  {5fdec69f-3b9f-4a56-adb0-448b7f626485}, !- Construction Name
  ExteriorRoof,                           !- Intended Surface Type
  IEAD;                                   !- Standards Construction Type

OS:Material,
  {2b703f40-4282-497a-b0fa-9ec5d4e8107d}, !- Handle
  Roof Membrane,                          !- Name
  VeryRough,                              !- Roughness
  0.0095,                                 !- Thickness {m}
  0.16,                                   !- Conductivity {W/m-K}
  1121.29,                                !- Density {kg/m3}
  1460,                                   !- Specific Heat {J/kg-K}
  0.9,                                    !- Thermal Absorptance
  0.7,                                    !- Solar Absorptance
  0.7;                                    !- Visible Absorptance

OS:Material,
  {ec7a01bf-5d93-4001-aebe-c7daf1560f43}, !- Handle
  Roof Insulation [18],                   !- Name
  MediumRough,                            !- Roughness
  0.1693,                                 !- Thickness {m}
  0.049,                                  !- Conductivity {W/m-K}
  265,                                    !- Density {kg/m3}
  836.800000000001,                       !- Specific Heat {J/kg-K}
  0.9,                                    !- Thermal Absorptance
  0.7,                                    !- Solar Absorptance
  0.7;                                    !- Visible Absorptance

OS:Material,
  {443a2bcc-fb35-4a25-a7a4-2ff84eeffc62}, !- Handle
  Metal Decking,                          !- Name
  MediumSmooth,                           !- Roughness
  0.0015,                                 !- Thickness {m}
  45.006,                                 !- Conductivity {W/m-K}
  7680,                                   !- Density {kg/m3}
  418.4,                                  !- Specific Heat {J/kg-K}
  0.9,                                    !- Thermal Absorptance
  0.6,                                    !- Solar Absorptance
  0.6;                                    !- Visible Absorptance

OS:Construction,
  {9379ee5d-5cc1-429a-b669-5b14ee30e7cd}, !- Handle
  ASHRAE 189.1-2009 ExtRoof IEAD ClimateZone 2-5, !- Name
  ,                                       !- Surface Rendering Name
  {2b703f40-4282-497a-b0fa-9ec5d4e8107d}, !- Layer 1
  {81ab096f-53a6-40a9-a816-d252ca80a4e3}, !- Layer 2
  {443a2bcc-fb35-4a25-a7a4-2ff84eeffc62}; !- Layer 3

OS:StandardsInformation:Construction,
  {a6410fb9-2c57-4eb4-9e82-c5eca09d0c91}, !- Handle
  {9379ee5d-5cc1-429a-b669-5b14ee30e7cd}, !- Construction Name
  ExteriorRoof,                           !- Intended Surface Type
  IEAD;                                   !- Standards Construction Type

OS:Material,
  {81ab096f-53a6-40a9-a816-d252ca80a4e3}, !- Handle
  Roof Insulation [21],                   !- Name
  MediumRough,                            !- Roughness
  0.2105,                                 !- Thickness {m}
  0.049,                                  !- Conductivity {W/m-K}
  265,                                    !- Density {kg/m3}
  836.800000000001,                       !- Specific Heat {J/kg-K}
  0.9,                                    !- Thermal Absorptance
  0.7,                                    !- Solar Absorptance
  0.7;                                    !- Visible Absorptance

OS:Construction,
  {6491aa35-05a6-4e0f-b9d6-b4d879f03ed7}, !- Handle
  ASHRAE 189.1-2009 ExtRoof IEAD ClimateZone 6, !- Name
  ,                                       !- Surface Rendering Name
  {2b703f40-4282-497a-b0fa-9ec5d4e8107d}, !- Layer 1
  {a26b5add-0ea2-464e-9ec1-260ba3b08223}, !- Layer 2
  {443a2bcc-fb35-4a25-a7a4-2ff84eeffc62}; !- Layer 3

OS:StandardsInformation:Construction,
  {f7afacbd-3c8f-4d0f-9f42-0812ed03c628}, !- Handle
  {6491aa35-05a6-4e0f-b9d6-b4d879f03ed7}, !- Construction Name
  ExteriorRoof,                           !- Intended Surface Type
  IEAD;                                   !- Standards Construction Type

OS:Material,
  {a26b5add-0ea2-464e-9ec1-260ba3b08223}, !- Handle
  Roof Insulation [24],                   !- Name
  MediumRough,                            !- Roughness
  0.260100000000001,                      !- Thickness {m}
  0.049,                                  !- Conductivity {W/m-K}
  265,                                    !- Density {kg/m3}
  836.800000000001,                       !- Specific Heat {J/kg-K}
  0.9,                                    !- Thermal Absorptance
  0.7,                                    !- Solar Absorptance
  0.7;                                    !- Visible Absorptance

OS:Construction,
  {b805caa3-82ad-4fbb-9d57-0a4487737fc1}, !- Handle
  ASHRAE 189.1-2009 ExtRoof IEAD ClimateZone 7-8, !- Name
  ,                                       !- Surface Rendering Name
  {2b703f40-4282-497a-b0fa-9ec5d4e8107d}, !- Layer 1
  {dfc5b947-7a44-4551-9cdd-c03988e29ab7}, !- Layer 2
  {443a2bcc-fb35-4a25-a7a4-2ff84eeffc62}; !- Layer 3

OS:StandardsInformation:Construction,
  {44cab640-2c99-4557-abc4-6f0b8edd12d6}, !- Handle
  {b805caa3-82ad-4fbb-9d57-0a4487737fc1}, !- Construction Name
  ExteriorRoof,                           !- Intended Surface Type
  IEAD;                                   !- Standards Construction Type

OS:Material,
  {dfc5b947-7a44-4551-9cdd-c03988e29ab7}, !- Handle
  Roof Insulation [26],                   !- Name
  MediumRough,                            !- Roughness
  0.2941,                                 !- Thickness {m}
  0.049,                                  !- Conductivity {W/m-K}
  265,                                    !- Density {kg/m3}
  836.800000000001,                       !- Specific Heat {J/kg-K}
  0.9,                                    !- Thermal Absorptance
  0.7,                                    !- Solar Absorptance
  0.7;                                    !- Visible Absorptance

OS:Construction,
  {fe216450-3747-4092-be2e-6ce6bd4c1869}, !- Handle
  ASHRAE 189.1-2009 ExtRoof Metal ClimateZone 1, !- Name
  ,                                       !- Surface Rendering Name
  {8ce3e454-4764-44b7-a490-337d329d978a}, !- Layer 1
  {d9b5b00d-56e3-4e3d-8d42-1c70afc62806}, !- Layer 2
  {443a2bcc-fb35-4a25-a7a4-2ff84eeffc62}; !- Layer 3

OS:StandardsInformation:Construction,
  {fec06c2f-6e46-44bb-adad-40c3905a298c}, !- Handle
  {fe216450-3747-4092-be2e-6ce6bd4c1869}, !- Construction Name
  ExteriorRoof,                           !- Intended Surface Type
  Metal;                                  !- Standards Construction Type

OS:Material,
  {8ce3e454-4764-44b7-a490-337d329d978a}, !- Handle
  Metal Roofing,                          !- Name
  MediumSmooth,                           !- Roughness
  0.0015,                                 !- Thickness {m}
  45.006,                                 !- Conductivity {W/m-K}
  7680,                                   !- Density {kg/m3}
  418.4,                                  !- Specific Heat {J/kg-K}
  0.9,                                    !- Thermal Absorptance
  0.6,                                    !- Solar Absorptance
  0.6;                                    !- Visible Absorptance

OS:Material,
  {d9b5b00d-56e3-4e3d-8d42-1c70afc62806}, !- Handle
  Roof Insulation [19],                   !- Name
  MediumRough,                            !- Roughness
  0.1868,                                 !- Thickness {m}
  0.049,                                  !- Conductivity {W/m-K}
  265,                                    !- Density {kg/m3}
  836.800000000001,                       !- Specific Heat {J/kg-K}
  0.9,                                    !- Thermal Absorptance
  0.7,                                    !- Solar Absorptance
  0.7;                                    !- Visible Absorptance

OS:Construction,
  {a62e8f53-0b2d-41cc-a6fe-3e7955bfcd1a}, !- Handle
  ASHRAE 189.1-2009 ExtRoof Metal ClimateZone 2-5, !- Name
  ,                                       !- Surface Rendering Name
  {8ce3e454-4764-44b7-a490-337d329d978a}, !- Layer 1
  {e2fee06d-0444-4b44-917d-737f16cf0fa4}, !- Layer 2
  {443a2bcc-fb35-4a25-a7a4-2ff84eeffc62}; !- Layer 3

OS:StandardsInformation:Construction,
  {1e6daf5e-1316-4e88-85e4-c4d3a3f6bc83}, !- Handle
  {a62e8f53-0b2d-41cc-a6fe-3e7955bfcd1a}, !- Construction Name
  ExteriorRoof,                           !- Intended Surface Type
  Metal;                                  !- Standards Construction Type

OS:Material,
  {e2fee06d-0444-4b44-917d-737f16cf0fa4}, !- Handle
  Roof Insulation [22],                   !- Name
  MediumRough,                            !- Roughness
  0.2358,                                 !- Thickness {m}
  0.049,                                  !- Conductivity {W/m-K}
  265,                                    !- Density {kg/m3}
  836.800000000001,                       !- Specific Heat {J/kg-K}
  0.9,                                    !- Thermal Absorptance
  0.7,                                    !- Solar Absorptance
  0.7;                                    !- Visible Absorptance

OS:Construction,
  {4271f220-f6e8-4a24-b068-0d2b4b536c49}, !- Handle
  ASHRAE 189.1-2009 ExtRoof Metal ClimateZone 6, !- Name
  ,                                       !- Surface Rendering Name
  {8ce3e454-4764-44b7-a490-337d329d978a}, !- Layer 1
  {777673cc-6d88-4619-af91-0f97e20b141f}, !- Layer 2
  {443a2bcc-fb35-4a25-a7a4-2ff84eeffc62}; !- Layer 3

OS:StandardsInformation:Construction,
  {f96c1f3c-6431-4baa-a6f9-c59e58cfdb67}, !- Handle
  {4271f220-f6e8-4a24-b068-0d2b4b536c49}, !- Construction Name
  ExteriorRoof,                           !- Intended Surface Type
  Metal;                                  !- Standards Construction Type

OS:Material,
  {777673cc-6d88-4619-af91-0f97e20b141f}, !- Handle
  Roof Insulation [25],                   !- Name
  MediumRough,                            !- Roughness
  0.263,                                  !- Thickness {m}
  0.049,                                  !- Conductivity {W/m-K}
  265,                                    !- Density {kg/m3}
  836.800000000001,                       !- Specific Heat {J/kg-K}
  0.9,                                    !- Thermal Absorptance
  0.7,                                    !- Solar Absorptance
  0.7;                                    !- Visible Absorptance

OS:Construction,
  {b10dcc45-887e-46cd-a49b-73e91669ff17}, !- Handle
  ASHRAE 189.1-2009 ExtRoof Metal ClimateZone 7-8, !- Name
  ,                                       !- Surface Rendering Name
  {8ce3e454-4764-44b7-a490-337d329d978a}, !- Layer 1
  {e41cf808-41e8-4cb8-bf86-f043ca208f99}, !- Layer 2
  {443a2bcc-fb35-4a25-a7a4-2ff84eeffc62}; !- Layer 3

OS:StandardsInformation:Construction,
  {0a77ce4a-6dd3-4052-b6b7-1ff544a6447d}, !- Handle
  {b10dcc45-887e-46cd-a49b-73e91669ff17}, !- Construction Name
  ExteriorRoof,                           !- Intended Surface Type
  Metal;                                  !- Standards Construction Type

OS:Material,
  {e41cf808-41e8-4cb8-bf86-f043ca208f99}, !- Handle
  Roof Insulation [27],                   !- Name
  MediumRough,                            !- Roughness
  0.297000000000001,                      !- Thickness {m}
  0.049,                                  !- Conductivity {W/m-K}
  265,                                    !- Density {kg/m3}
  836.800000000001,                       !- Specific Heat {J/kg-K}
  0.9,                                    !- Thermal Absorptance
  0.7,                                    !- Solar Absorptance
  0.7;                                    !- Visible Absorptance

OS:Construction,
  {865b1398-05ca-4f25-a05e-20cb4b28faf9}, !- Handle
  ASHRAE 189.1-2009 ExtWall Mass ClimateZone 1, !- Name
  ,                                       !- Surface Rendering Name
  {b09969d2-5341-4ede-b7e4-930f12f1fe88}, !- Layer 1
  {20e35176-89d6-4bc5-9f68-7dddb0ecf0b7}, !- Layer 2
  {8251c02f-730d-45f0-8883-22f25a07298c}, !- Layer 3
  {87faf291-645f-41c3-baf6-f3dd7f998d39}; !- Layer 4

OS:StandardsInformation:Construction,
  {297ecdd9-7cd8-434f-a871-647b37634044}, !- Handle
  {865b1398-05ca-4f25-a05e-20cb4b28faf9}, !- Construction Name
  ExteriorWall,                           !- Intended Surface Type
  Mass;                                   !- Standards Construction Type

OS:Material,
  {b09969d2-5341-4ede-b7e4-930f12f1fe88}, !- Handle
  1IN Stucco,                             !- Name
  Smooth,                                 !- Roughness
  0.0253,                                 !- Thickness {m}
  0.691799999999999,                      !- Conductivity {W/m-K}
  1858,                                   !- Density {kg/m3}
  836.999999999999,                       !- Specific Heat {J/kg-K}
  0.9,                                    !- Thermal Absorptance
  0.92,                                   !- Solar Absorptance
  0.92;                                   !- Visible Absorptance

OS:Material,
  {20e35176-89d6-4bc5-9f68-7dddb0ecf0b7}, !- Handle
  8IN Concrete HW,                        !- Name
  MediumRough,                            !- Roughness
  0.2033,                                 !- Thickness {m}
  1.72959999999999,                       !- Conductivity {W/m-K}
  2242.99999999999,                       !- Density {kg/m3}
  836.999999999999,                       !- Specific Heat {J/kg-K}
  0.9,                                    !- Thermal Absorptance
  0.65,                                   !- Solar Absorptance
  0.65;                                   !- Visible Absorptance

OS:Material,
  {8251c02f-730d-45f0-8883-22f25a07298c}, !- Handle
  Wall Insulation [31],                   !- Name
  MediumRough,                            !- Roughness
  0.0337000000000001,                     !- Thickness {m}
  0.0432,                                 !- Conductivity {W/m-K}
  91,                                     !- Density {kg/m3}
  836.999999999999,                       !- Specific Heat {J/kg-K}
  0.9,                                    !- Thermal Absorptance
  0.5,                                    !- Solar Absorptance
  0.5;                                    !- Visible Absorptance

OS:Construction,
  {06515132-ce3c-458c-86ab-60ae717c1a6f}, !- Handle
  ASHRAE 189.1-2009 ExtWall Mass ClimateZone 2, !- Name
  ,                                       !- Surface Rendering Name
  {b09969d2-5341-4ede-b7e4-930f12f1fe88}, !- Layer 1
  {20e35176-89d6-4bc5-9f68-7dddb0ecf0b7}, !- Layer 2
  {8f5db568-ce9e-4e96-b74f-767401e71402}, !- Layer 3
  {87faf291-645f-41c3-baf6-f3dd7f998d39}; !- Layer 4

OS:StandardsInformation:Construction,
  {e55e9a86-ef4f-4229-b979-2f3de96e9728}, !- Handle
  {06515132-ce3c-458c-86ab-60ae717c1a6f}, !- Construction Name
  ExteriorWall,                           !- Intended Surface Type
  Mass;                                   !- Standards Construction Type

OS:Material,
  {8f5db568-ce9e-4e96-b74f-767401e71402}, !- Handle
  Wall Insulation [35],                   !- Name
  MediumRough,                            !- Roughness
  0.0452,                                 !- Thickness {m}
  0.0432,                                 !- Conductivity {W/m-K}
  91,                                     !- Density {kg/m3}
  836.999999999999,                       !- Specific Heat {J/kg-K}
  0.9,                                    !- Thermal Absorptance
  0.5,                                    !- Solar Absorptance
  0.5;                                    !- Visible Absorptance

OS:Construction,
  {a9472261-c997-437c-832b-ce2fbf204187}, !- Handle
  ASHRAE 189.1-2009 ExtWall Mass ClimateZone 3, !- Name
  ,                                       !- Surface Rendering Name
  {b09969d2-5341-4ede-b7e4-930f12f1fe88}, !- Layer 1
  {20e35176-89d6-4bc5-9f68-7dddb0ecf0b7}, !- Layer 2
  {6c780284-1e20-422b-b2c7-3fbc954c07fb}, !- Layer 3
  {87faf291-645f-41c3-baf6-f3dd7f998d39}; !- Layer 4

OS:StandardsInformation:Construction,
  {9c890ab4-5027-490f-a4bc-c75a5655d429}, !- Handle
  {a9472261-c997-437c-832b-ce2fbf204187}, !- Construction Name
  ExteriorWall,                           !- Intended Surface Type
  Mass;                                   !- Standards Construction Type

OS:Material,
  {6c780284-1e20-422b-b2c7-3fbc954c07fb}, !- Handle
  Wall Insulation [36],                   !- Name
  MediumRough,                            !- Roughness
  0.0565999999999999,                     !- Thickness {m}
  0.0432,                                 !- Conductivity {W/m-K}
  91,                                     !- Density {kg/m3}
  836.999999999999,                       !- Specific Heat {J/kg-K}
  0.9,                                    !- Thermal Absorptance
  0.5,                                    !- Solar Absorptance
  0.5;                                    !- Visible Absorptance

OS:Construction,
  {bf5a9dd0-03f4-49dd-94e0-fb8e640c7113}, !- Handle
  ASHRAE 189.1-2009 ExtWall Mass ClimateZone 4, !- Name
  ,                                       !- Surface Rendering Name
  {b09969d2-5341-4ede-b7e4-930f12f1fe88}, !- Layer 1
  {20e35176-89d6-4bc5-9f68-7dddb0ecf0b7}, !- Layer 2
  {bc4488ea-8899-4621-9147-7787868e9a0e}, !- Layer 3
  {87faf291-645f-41c3-baf6-f3dd7f998d39}; !- Layer 4

OS:StandardsInformation:Construction,
  {12070c8c-7321-43a1-a039-1f1d5ebaa23d}, !- Handle
  {bf5a9dd0-03f4-49dd-94e0-fb8e640c7113}, !- Construction Name
  ExteriorWall,                           !- Intended Surface Type
  Mass;                                   !- Standards Construction Type

OS:Material,
  {bc4488ea-8899-4621-9147-7787868e9a0e}, !- Handle
  Wall Insulation [37],                   !- Name
  MediumRough,                            !- Roughness
  0.0680999999999999,                     !- Thickness {m}
  0.0432,                                 !- Conductivity {W/m-K}
  91,                                     !- Density {kg/m3}
  836.999999999999,                       !- Specific Heat {J/kg-K}
  0.9,                                    !- Thermal Absorptance
  0.5,                                    !- Solar Absorptance
  0.5;                                    !- Visible Absorptance

OS:Construction,
  {fd99706a-8377-4e98-8159-cf864b3f0375}, !- Handle
  ASHRAE 189.1-2009 ExtWall Mass ClimateZone 5, !- Name
  ,                                       !- Surface Rendering Name
  {b09969d2-5341-4ede-b7e4-930f12f1fe88}, !- Layer 1
  {20e35176-89d6-4bc5-9f68-7dddb0ecf0b7}, !- Layer 2
  {a93c6103-4a60-445d-b211-20ccf7a07faf}, !- Layer 3
  {87faf291-645f-41c3-baf6-f3dd7f998d39}; !- Layer 4

OS:StandardsInformation:Construction,
  {e7845242-1c7f-48f2-98c8-9bee67973184}, !- Handle
  {fd99706a-8377-4e98-8159-cf864b3f0375}, !- Construction Name
  ExteriorWall,                           !- Intended Surface Type
  Mass;                                   !- Standards Construction Type

OS:Material,
  {a93c6103-4a60-445d-b211-20ccf7a07faf}, !- Handle
  Wall Insulation [40],                   !- Name
  MediumRough,                            !- Roughness
  0.0793999999999999,                     !- Thickness {m}
  0.0432,                                 !- Conductivity {W/m-K}
  91,                                     !- Density {kg/m3}
  836.999999999999,                       !- Specific Heat {J/kg-K}
  0.9,                                    !- Thermal Absorptance
  0.5,                                    !- Solar Absorptance
  0.5;                                    !- Visible Absorptance

OS:Construction,
  {a2c859dd-e323-4a29-955a-833e71fc0d7c}, !- Handle
  ASHRAE 189.1-2009 ExtWall Mass ClimateZone 6, !- Name
  ,                                       !- Surface Rendering Name
  {b09969d2-5341-4ede-b7e4-930f12f1fe88}, !- Layer 1
  {20e35176-89d6-4bc5-9f68-7dddb0ecf0b7}, !- Layer 2
  {16589d72-6ab4-47d4-a266-15cb951b36be}, !- Layer 3
  {87faf291-645f-41c3-baf6-f3dd7f998d39}; !- Layer 4

OS:StandardsInformation:Construction,
  {d1810683-fb75-4fb9-90b6-838d49773511}, !- Handle
  {a2c859dd-e323-4a29-955a-833e71fc0d7c}, !- Construction Name
  ExteriorWall,                           !- Intended Surface Type
  Mass;                                   !- Standards Construction Type

OS:Material,
  {16589d72-6ab4-47d4-a266-15cb951b36be}, !- Handle
  Wall Insulation [42],                   !- Name
  MediumRough,                            !- Roughness
  0.0913999999999999,                     !- Thickness {m}
  0.0432,                                 !- Conductivity {W/m-K}
  91,                                     !- Density {kg/m3}
  836.999999999999,                       !- Specific Heat {J/kg-K}
  0.9,                                    !- Thermal Absorptance
  0.5,                                    !- Solar Absorptance
  0.5;                                    !- Visible Absorptance

OS:Construction,
  {93ff4f58-b7ce-4826-96fa-fef954609afa}, !- Handle
  ASHRAE 189.1-2009 ExtWall Mass ClimateZone 7-8, !- Name
  ,                                       !- Surface Rendering Name
  {b09969d2-5341-4ede-b7e4-930f12f1fe88}, !- Layer 1
  {20e35176-89d6-4bc5-9f68-7dddb0ecf0b7}, !- Layer 2
  {2ba2e5f4-caee-4c07-a124-2a092ca6ef1b}, !- Layer 3
  {87faf291-645f-41c3-baf6-f3dd7f998d39}; !- Layer 4

OS:StandardsInformation:Construction,
  {bca5dede-6b45-44a3-bf7c-b9b8757ca3e6}, !- Handle
  {93ff4f58-b7ce-4826-96fa-fef954609afa}, !- Construction Name
  ExteriorWall,                           !- Intended Surface Type
  Mass;                                   !- Standards Construction Type

OS:Material,
  {2ba2e5f4-caee-4c07-a124-2a092ca6ef1b}, !- Handle
  Wall Insulation [44],                   !- Name
  MediumRough,                            !- Roughness
  0.1104,                                 !- Thickness {m}
  0.0432,                                 !- Conductivity {W/m-K}
  91,                                     !- Density {kg/m3}
  836.999999999999,                       !- Specific Heat {J/kg-K}
  0.9,                                    !- Thermal Absorptance
  0.5,                                    !- Solar Absorptance
  0.5;                                    !- Visible Absorptance

OS:Construction,
  {6e56ea28-0f94-4a13-8aea-69d3adaf6584}, !- Handle
  ASHRAE 189.1-2009 ExtWall Mass ClimateZone alt-res 1, !- Name
  ,                                       !- Surface Rendering Name
  {b09969d2-5341-4ede-b7e4-930f12f1fe88}, !- Layer 1
  {20e35176-89d6-4bc5-9f68-7dddb0ecf0b7}, !- Layer 2
  {8f5db568-ce9e-4e96-b74f-767401e71402}, !- Layer 3
  {87faf291-645f-41c3-baf6-f3dd7f998d39}; !- Layer 4

OS:StandardsInformation:Construction,
  {0baa4153-b35d-4f48-a4c4-a45a12d5ee59}, !- Handle
  {6e56ea28-0f94-4a13-8aea-69d3adaf6584}, !- Construction Name
  ExteriorWall,                           !- Intended Surface Type
  Mass;                                   !- Standards Construction Type

OS:Construction,
  {29b1cceb-41b0-4ec0-838b-cbaf9e6e44a0}, !- Handle
  ASHRAE 189.1-2009 ExtWall Mass ClimateZone alt-res 2, !- Name
  ,                                       !- Surface Rendering Name
  {b09969d2-5341-4ede-b7e4-930f12f1fe88}, !- Layer 1
  {20e35176-89d6-4bc5-9f68-7dddb0ecf0b7}, !- Layer 2
  {6c780284-1e20-422b-b2c7-3fbc954c07fb}, !- Layer 3
  {87faf291-645f-41c3-baf6-f3dd7f998d39}; !- Layer 4

OS:StandardsInformation:Construction,
  {99166359-0f2d-4b81-8f89-c96901257d3f}, !- Handle
  {29b1cceb-41b0-4ec0-838b-cbaf9e6e44a0}, !- Construction Name
  ExteriorWall,                           !- Intended Surface Type
  Mass;                                   !- Standards Construction Type

OS:Construction,
  {3bb73b5e-91bc-4f28-9fe4-9a40f6027faf}, !- Handle
  ASHRAE 189.1-2009 ExtWall Mass ClimateZone alt-res 3, !- Name
  ,                                       !- Surface Rendering Name
  {b09969d2-5341-4ede-b7e4-930f12f1fe88}, !- Layer 1
  {20e35176-89d6-4bc5-9f68-7dddb0ecf0b7}, !- Layer 2
  {bc4488ea-8899-4621-9147-7787868e9a0e}, !- Layer 3
  {87faf291-645f-41c3-baf6-f3dd7f998d39}; !- Layer 4

OS:StandardsInformation:Construction,
  {168ece09-1b56-4fb6-ad97-9c180293e31f}, !- Handle
  {3bb73b5e-91bc-4f28-9fe4-9a40f6027faf}, !- Construction Name
  ExteriorWall,                           !- Intended Surface Type
  Mass;                                   !- Standards Construction Type

OS:Construction,
  {327bd9f2-45cf-41c4-b5b0-9b7c025a4838}, !- Handle
  ASHRAE 189.1-2009 ExtWall Mass ClimateZone alt-res 4, !- Name
  ,                                       !- Surface Rendering Name
  {b09969d2-5341-4ede-b7e4-930f12f1fe88}, !- Layer 1
  {20e35176-89d6-4bc5-9f68-7dddb0ecf0b7}, !- Layer 2
  {a93c6103-4a60-445d-b211-20ccf7a07faf}, !- Layer 3
  {87faf291-645f-41c3-baf6-f3dd7f998d39}; !- Layer 4

OS:StandardsInformation:Construction,
  {f634f2fb-35bd-492a-a5af-d2d073147dd8}, !- Handle
  {327bd9f2-45cf-41c4-b5b0-9b7c025a4838}, !- Construction Name
  ExteriorWall,                           !- Intended Surface Type
  Mass;                                   !- Standards Construction Type

OS:Construction,
  {1330df58-f470-44a0-83ae-1002c9f6e1a6}, !- Handle
  ASHRAE 189.1-2009 ExtWall Mass ClimateZone alt-res 5, !- Name
  ,                                       !- Surface Rendering Name
  {b09969d2-5341-4ede-b7e4-930f12f1fe88}, !- Layer 1
  {20e35176-89d6-4bc5-9f68-7dddb0ecf0b7}, !- Layer 2
  {16589d72-6ab4-47d4-a266-15cb951b36be}, !- Layer 3
  {87faf291-645f-41c3-baf6-f3dd7f998d39}; !- Layer 4

OS:StandardsInformation:Construction,
  {dc5e03e3-ac24-481a-9c8e-5ae5545b8881}, !- Handle
  {1330df58-f470-44a0-83ae-1002c9f6e1a6}, !- Construction Name
  ExteriorWall,                           !- Intended Surface Type
  Mass;                                   !- Standards Construction Type

OS:Construction,
  {1761f48e-98d5-49c9-8b8f-f2bb76d682ad}, !- Handle
  ASHRAE 189.1-2009 ExtWall Mass ClimateZone alt-res 6, !- Name
  ,                                       !- Surface Rendering Name
  {b09969d2-5341-4ede-b7e4-930f12f1fe88}, !- Layer 1
  {20e35176-89d6-4bc5-9f68-7dddb0ecf0b7}, !- Layer 2
  {2ba2e5f4-caee-4c07-a124-2a092ca6ef1b}, !- Layer 3
  {87faf291-645f-41c3-baf6-f3dd7f998d39}; !- Layer 4

OS:StandardsInformation:Construction,
  {05b8eba0-f870-4bdb-aeb0-606700726f71}, !- Handle
  {1761f48e-98d5-49c9-8b8f-f2bb76d682ad}, !- Construction Name
  ExteriorWall,                           !- Intended Surface Type
  Mass;                                   !- Standards Construction Type

OS:Construction,
  {399afb7a-1da8-4778-bc3b-18794a846e00}, !- Handle
  ASHRAE 189.1-2009 ExtWall Mass ClimateZone alt-res 7, !- Name
  ,                                       !- Surface Rendering Name
  {b09969d2-5341-4ede-b7e4-930f12f1fe88}, !- Layer 1
  {20e35176-89d6-4bc5-9f68-7dddb0ecf0b7}, !- Layer 2
  {2ba2e5f4-caee-4c07-a124-2a092ca6ef1b}, !- Layer 3
  {87faf291-645f-41c3-baf6-f3dd7f998d39}; !- Layer 4

OS:StandardsInformation:Construction,
  {f3163089-31b2-4cc8-9600-bb7424457bef}, !- Handle
  {399afb7a-1da8-4778-bc3b-18794a846e00}, !- Construction Name
  ExteriorWall,                           !- Intended Surface Type
  Mass;                                   !- Standards Construction Type

OS:Construction,
  {86be813e-09a8-439b-a984-b7387e67a0f9}, !- Handle
  ASHRAE 189.1-2009 ExtWall Mass ClimateZone alt-res 8, !- Name
  ,                                       !- Surface Rendering Name
  {b09969d2-5341-4ede-b7e4-930f12f1fe88}, !- Layer 1
  {20e35176-89d6-4bc5-9f68-7dddb0ecf0b7}, !- Layer 2
  {570ad96c-6ecd-45fe-ace4-5d45f5151113}, !- Layer 3
  {87faf291-645f-41c3-baf6-f3dd7f998d39}; !- Layer 4

OS:StandardsInformation:Construction,
  {e991c201-8306-45bd-a9f9-93d5e94c9254}, !- Handle
  {86be813e-09a8-439b-a984-b7387e67a0f9}, !- Construction Name