
OS:Version,
  {544f9ee4-d7c9-4755-a258-52d5ed7f3630}, !- Handle
  1.3.3;                                  !- Version Identifier

OS:Construction,
  {338bcce1-c2af-4137-993a-0a936f5f070f}, !- Handle
  ASHRAE 189.1-2009 AtticFloor ClimateZone 1-8, !- Name
  ,                                       !- Surface Rendering Name
  {6f391e38-687e-465c-a27e-61903a679432}, !- Layer 1
  {a8ec5313-4b83-4321-bc0d-d49cacbd574a}, !- Layer 2
  {6f391e38-687e-465c-a27e-61903a679432}; !- Layer 3

OS:StandardsInformation:Construction,
  {5820dcf3-5ca3-4aac-928c-fbb36ec117ae}, !- Handle
  {338bcce1-c2af-4137-993a-0a936f5f070f}, !- Construction Name
  AtticFloor,                             !- Intended Surface Type
  WoodFramed;                             !- Standards Construction Type

OS:Material,
  {6f391e38-687e-465c-a27e-61903a679432}, !- Handle
  1/2IN Gypsum,                           !- Name
  Smooth,                                 !- Roughness
  0.0127,                                 !- Thickness {m}
  0.16,                                   !- Conductivity {W/m-K}
  784.9,                                  !- Density {kg/m3}
  830.000000000001,                       !- Specific Heat {J/kg-K}
  0.9,                                    !- Thermal Absorptance
  0.92,                                   !- Solar Absorptance
  0.92;                                   !- Visible Absorptance

OS:Material,
  {a8ec5313-4b83-4321-bc0d-d49cacbd574a}, !- Handle
  AtticFloor Insulation,                  !- Name
  MediumRough,                            !- Roughness
  0.2379,                                 !- Thickness {m}
  0.049,                                  !- Conductivity {W/m-K}
  265,                                    !- Density {kg/m3}
  836.800000000001,                       !- Specific Heat {J/kg-K}
  0.9,                                    !- Thermal Absorptance
  0.7,                                    !- Solar Absorptance
  0.7;                                    !- Visible Absorptance

OS:Construction,
  {0190bd6c-8380-43b3-a247-2eb9a02b8c3b}, !- Handle
  ASHRAE 189.1-2009 ExtRoof IEAD ClimateZone 1, !- Name
  ,                                       !- Surface Rendering Name
  {e020b63e-5474-474e-a06c-3366a3b7569e}, !- Layer 1
  {aa8e553c-27db-4e56-93da-7eb2361d26d8}, !- Layer 2
  {efc7a6e3-0fc2-420f-b7e7-c98a3d652a7e}; !- Layer 3

OS:StandardsInformation:Construction,
  {dbb952ed-34f6-4a52-92cf-7fcdc27c5108}, !- Handle
  {0190bd6c-8380-43b3-a247-2eb9a02b8c3b}, !- Construction Name
  ExteriorRoof,                           !- Intended Surface Type
  IEAD;                                   !- Standards Construction Type

OS:Material,
  {e020b63e-5474-474e-a06c-3366a3b7569e}, !- Handle
  Roof Membrane,                          !- Name
  VeryRough,                              !- Roughness
  0.0095,                                 !- Thickness {m}
  0.16,                                   !- Conductivity {W/m-K}
  1121.29,                                !- Density {kg/m3}
  1460,                                   !- Specific Heat {J/kg-K}
  0.9,                                    !- Thermal Absorptance
  0.7,                                    !- Solar Absorptance
  0.7;                                    !- Visible Absorptance

OS:Material,
  {aa8e553c-27db-4e56-93da-7eb2361d26d8}, !- Handle
  Roof Insulation [18],                   !- Name
  MediumRough,                            !- Roughness
  0.1693,                                 !- Thickness {m}
  0.049,                                  !- Conductivity {W/m-K}
  265,                                    !- Density {kg/m3}
  836.800000000001,                       !- Specific Heat {J/kg-K}
  0.9,                                    !- Thermal Absorptance
  0.7,                                    !- Solar Absorptance
  0.7;                                    !- Visible Absorptance

OS:Material,
  {efc7a6e3-0fc2-420f-b7e7-c98a3d652a7e}, !- Handle
  Metal Decking,                          !- Name
  MediumSmooth,                           !- Roughness
  0.0015,                                 !- Thickness {m}
  45.006,                                 !- Conductivity {W/m-K}
  7680,                                   !- Density {kg/m3}
  418.4,                                  !- Specific Heat {J/kg-K}
  0.9,                                    !- Thermal Absorptance
  0.7,                                    !- Solar Absorptance
  0.3;                                    !- Visible Absorptance

OS:Construction,
  {983f97c1-0dec-4a14-ad41-b55d1dcbf6a6}, !- Handle
  ASHRAE 189.1-2009 ExtRoof IEAD ClimateZone 2-5, !- Name
  ,                                       !- Surface Rendering Name
  {e020b63e-5474-474e-a06c-3366a3b7569e}, !- Layer 1
  {335a14ce-eef1-411c-abbf-f4c8c050ee2a}, !- Layer 2
  {efc7a6e3-0fc2-420f-b7e7-c98a3d652a7e}; !- Layer 3

OS:StandardsInformation:Construction,
  {bee5213e-f16c-4408-a06b-5afde891452b}, !- Handle
  {983f97c1-0dec-4a14-ad41-b55d1dcbf6a6}, !- Construction Name
  ExteriorRoof,                           !- Intended Surface Type
  IEAD;                                   !- Standards Construction Type

OS:Material,
  {335a14ce-eef1-411c-abbf-f4c8c050ee2a}, !- Handle
  Roof Insulation [21],                   !- Name
  MediumRough,                            !- Roughness
  0.2105,                                 !- Thickness {m}
  0.049,                                  !- Conductivity {W/m-K}
  265,                                    !- Density {kg/m3}
  836.800000000001,                       !- Specific Heat {J/kg-K}
  0.9,                                    !- Thermal Absorptance
  0.7,                                    !- Solar Absorptance
  0.7;                                    !- Visible Absorptance

OS:Construction,
  {7b639c3b-fe0a-43df-84f1-235329880b1b}, !- Handle
  ASHRAE 189.1-2009 ExtRoof IEAD ClimateZone 6, !- Name
  ,                                       !- Surface Rendering Name
  {e020b63e-5474-474e-a06c-3366a3b7569e}, !- Layer 1
  {4aeb6f36-2632-4740-b57a-05abaaf3c162}, !- Layer 2
  {efc7a6e3-0fc2-420f-b7e7-c98a3d652a7e}; !- Layer 3

OS:StandardsInformation:Construction,
  {223ba3b9-21a6-46fc-8835-d2c558ad003f}, !- Handle
  {7b639c3b-fe0a-43df-84f1-235329880b1b}, !- Construction Name
  ExteriorRoof,                           !- Intended Surface Type
  IEAD;                                   !- Standards Construction Type

OS:Material,
  {4aeb6f36-2632-4740-b57a-05abaaf3c162}, !- Handle
  Roof Insulation [24],                   !- Name
  MediumRough,                            !- Roughness
  0.260100000000001,                      !- Thickness {m}
  0.049,                                  !- Conductivity {W/m-K}
  265,                                    !- Density {kg/m3}
  836.800000000001,                       !- Specific Heat {J/kg-K}
  0.9,                                    !- Thermal Absorptance
  0.7,                                    !- Solar Absorptance
  0.7;                                    !- Visible Absorptance

OS:Construction,
  {9254d7ac-de68-44a7-9316-e56c88190b19}, !- Handle
  ASHRAE 189.1-2009 ExtRoof IEAD ClimateZone 7-8, !- Name
  ,                                       !- Surface Rendering Name
  {e020b63e-5474-474e-a06c-3366a3b7569e}, !- Layer 1
  {bfde7b2f-5cc5-486a-86d4-23d16045dd96}, !- Layer 2
  {efc7a6e3-0fc2-420f-b7e7-c98a3d652a7e}; !- Layer 3

OS:StandardsInformation:Construction,
  {cb9191fe-9dce-4951-b211-faaa86457d87}, !- Handle
  {9254d7ac-de68-44a7-9316-e56c88190b19}, !- Construction Name
  ExteriorRoof,                           !- Intended Surface Type
  IEAD;                                   !- Standards Construction Type

OS:Material,
  {bfde7b2f-5cc5-486a-86d4-23d16045dd96}, !- Handle
  Roof Insulation [26],                   !- Name
  MediumRough,                            !- Roughness
  0.2941,                                 !- Thickness {m}
  0.049,                                  !- Conductivity {W/m-K}
  265,                                    !- Density {kg/m3}
  836.800000000001,                       !- Specific Heat {J/kg-K}
  0.9,                                    !- Thermal Absorptance
  0.7,                                    !- Solar Absorptance
  0.7;                                    !- Visible Absorptance

OS:Construction,
  {5a8a6a57-0feb-41fe-9283-4f855c6491e4}, !- Handle
  ASHRAE 189.1-2009 ExtRoof Metal ClimateZone 1, !- Name
  ,                                       !- Surface Rendering Name
  {5bef87b7-1c80-435a-a884-7c5ff27aecc2}, !- Layer 1
  {5b8d8ee5-cfc7-4717-adbf-665b2f1bf11b}; !- Layer 2

OS:StandardsInformation:Construction,
  {f8554a03-5e68-4175-ae3d-5854ba07b717}, !- Handle
  {5a8a6a57-0feb-41fe-9283-4f855c6491e4}, !- Construction Name
  ExteriorRoof,                           !- Intended Surface Type
  Metal;                                  !- Standards Construction Type

OS:Material,
  {5bef87b7-1c80-435a-a884-7c5ff27aecc2}, !- Handle
  Metal Roofing,                          !- Name
  MediumSmooth,                           !- Roughness
  0.0015,                                 !- Thickness {m}
  45.006,                                 !- Conductivity {W/m-K}
  7680,                                   !- Density {kg/m3}
  418.4,                                  !- Specific Heat {J/kg-K}
  0.9,                                    !- Thermal Absorptance
  0.3,                                    !- Solar Absorptance
  0.3;                                    !- Visible Absorptance

OS:Material,
  {5b8d8ee5-cfc7-4717-adbf-665b2f1bf11b}, !- Handle
  Roof Insulation [19],                   !- Name
  MediumRough,                            !- Roughness
  0.1868,                                 !- Thickness {m}
  0.049,                                  !- Conductivity {W/m-K}
  265,                                    !- Density {kg/m3}
  836.800000000001,                       !- Specific Heat {J/kg-K}
  0.9,                                    !- Thermal Absorptance
  0.7,                                    !- Solar Absorptance
  0.7;                                    !- Visible Absorptance

OS:Construction,
  {84050ad1-16e2-4017-a4b5-91dd78abfa46}, !- Handle
  ASHRAE 189.1-2009 ExtRoof Metal ClimateZone 2-5, !- Name
  ,                                       !- Surface Rendering Name
  {5bef87b7-1c80-435a-a884-7c5ff27aecc2}, !- Layer 1
  {de366c68-08b8-4a54-84c3-16415d822528}; !- Layer 2

OS:StandardsInformation:Construction,
  {59ab2760-04b3-4fe2-8b8a-c109dbd583c0}, !- Handle
  {84050ad1-16e2-4017-a4b5-91dd78abfa46}, !- Construction Name
  ExteriorRoof,                           !- Intended Surface Type
  Metal;                                  !- Standards Construction Type

OS:Material,
  {de366c68-08b8-4a54-84c3-16415d822528}, !- Handle
  Roof Insulation [22],                   !- Name
  MediumRough,                            !- Roughness
  0.2358,                                 !- Thickness {m}
  0.049,                                  !- Conductivity {W/m-K}
  265,                                    !- Density {kg/m3}
  836.800000000001,                       !- Specific Heat {J/kg-K}
  0.9,                                    !- Thermal Absorptance
  0.7,                                    !- Solar Absorptance
  0.7;                                    !- Visible Absorptance

OS:Construction,
  {47ccd546-3ea3-41ba-a2a1-dd867c146632}, !- Handle
  ASHRAE 189.1-2009 ExtRoof Metal ClimateZone 6, !- Name
  ,                                       !- Surface Rendering Name
  {5bef87b7-1c80-435a-a884-7c5ff27aecc2}, !- Layer 1
  {07475ce6-d7ac-431e-a663-711cb8cf4848}; !- Layer 2

OS:StandardsInformation:Construction,
  {2d7e18f3-c7d1-44de-aba4-29c0d3bb32a4}, !- Handle
  {47ccd546-3ea3-41ba-a2a1-dd867c146632}, !- Construction Name
  ExteriorRoof,                           !- Intended Surface Type
  Metal;                                  !- Standards Construction Type

OS:Material,
  {07475ce6-d7ac-431e-a663-711cb8cf4848}, !- Handle
  Roof Insulation [25],                   !- Name
  MediumRough,                            !- Roughness
  0.263,                                  !- Thickness {m}
  0.049,                                  !- Conductivity {W/m-K}
  265,                                    !- Density {kg/m3}
  836.800000000001,                       !- Specific Heat {J/kg-K}
  0.9,                                    !- Thermal Absorptance
  0.7,                                    !- Solar Absorptance
  0.7;                                    !- Visible Absorptance

OS:Construction,
  {f5837e20-9fa6-46cb-a109-42adcbedf709}, !- Handle
  ASHRAE 189.1-2009 ExtRoof Metal ClimateZone 7-8, !- Name
  ,                                       !- Surface Rendering Name
  {5bef87b7-1c80-435a-a884-7c5ff27aecc2}, !- Layer 1
  {69bedf52-2548-4441-9673-1dff18a6ad91}; !- Layer 2

OS:StandardsInformation:Construction,
  {3149c0d9-0b47-47f2-8701-4415b872b259}, !- Handle
  {f5837e20-9fa6-46cb-a109-42adcbedf709}, !- Construction Name
  ExteriorRoof,                           !- Intended Surface Type
  Metal;                                  !- Standards Construction Type

OS:Material,
  {69bedf52-2548-4441-9673-1dff18a6ad91}, !- Handle
  Roof Insulation [27],                   !- Name
  MediumRough,                            !- Roughness
  0.297000000000001,                      !- Thickness {m}
  0.049,                                  !- Conductivity {W/m-K}
  265,                                    !- Density {kg/m3}
  836.800000000001,                       !- Specific Heat {J/kg-K}
  0.9,                                    !- Thermal Absorptance
  0.7,                                    !- Solar Absorptance
  0.7;                                    !- Visible Absorptance

OS:Construction,
  {9294b2d3-dabe-40db-8d1e-143005185d14}, !- Handle
  ASHRAE 189.1-2009 ExtWall Mass ClimateZone 1, !- Name
  ,                                       !- Surface Rendering Name
  {99ea25d5-f824-41c8-9b58-788ff8df8d4c}, !- Layer 1
  {ac38fde9-3059-40a4-bbd1-bc7a190e88ad}, !- Layer 2
  {8696f8ae-bb29-48c4-becd-1f4616456b96}, !- Layer 3
  {6f391e38-687e-465c-a27e-61903a679432}; !- Layer 4

OS:StandardsInformation:Construction,
  {f46201e7-9889-4220-80b3-806cfe6bd749}, !- Handle
  {9294b2d3-dabe-40db-8d1e-143005185d14}, !- Construction Name
  ExteriorWall,                           !- Intended Surface Type
  Mass;                                   !- Standards Construction Type

OS:Material,
  {99ea25d5-f824-41c8-9b58-788ff8df8d4c}, !- Handle
  1IN Stucco,                             !- Name
  Smooth,                                 !- Roughness
  0.0253,                                 !- Thickness {m}
  0.691799999999999,                      !- Conductivity {W/m-K}
  1858,                                   !- Density {kg/m3}
  836.999999999999,                       !- Specific Heat {J/kg-K}
  0.9,                                    !- Thermal Absorptance
  0.92,                                   !- Solar Absorptance
  0.92;                                   !- Visible Absorptance

OS:Material,
  {ac38fde9-3059-40a4-bbd1-bc7a190e88ad}, !- Handle
  8IN Concrete HW,                        !- Name
  MediumRough,                            !- Roughness
  0.2033,                                 !- Thickness {m}
  1.72959999999999,                       !- Conductivity {W/m-K}
  2242.99999999999,                       !- Density {kg/m3}
  836.999999999999,                       !- Specific Heat {J/kg-K}
  0.9,                                    !- Thermal Absorptance
  0.65,                                   !- Solar Absorptance
  0.65;                                   !- Visible Absorptance

OS:Material,
  {8696f8ae-bb29-48c4-becd-1f4616456b96}, !- Handle
  Wall Insulation [31],                   !- Name
  MediumRough,                            !- Roughness
  0.0337000000000001,                     !- Thickness {m}
  0.0432,                                 !- Conductivity {W/m-K}
  91,                                     !- Density {kg/m3}
  836.999999999999,                       !- Specific Heat {J/kg-K}
  0.9,                                    !- Thermal Absorptance
  0.5,                                    !- Solar Absorptance
  0.5;                                    !- Visible Absorptance

OS:Construction,
  {b117791c-22cf-4862-a367-a2e8e5f0df85}, !- Handle
  ASHRAE 189.1-2009 ExtWall Mass ClimateZone 2, !- Name
  ,                                       !- Surface Rendering Name
  {99ea25d5-f824-41c8-9b58-788ff8df8d4c}, !- Layer 1
  {ac38fde9-3059-40a4-bbd1-bc7a190e88ad}, !- Layer 2
  {a3a6f027-802a-466d-b100-49973536ed2a}, !- Layer 3
  {6f391e38-687e-465c-a27e-61903a679432}; !- Layer 4

OS:StandardsInformation:Construction,
  {835abcf3-ce85-47e0-90db-2c6bec6479ad}, !- Handle
  {b117791c-22cf-4862-a367-a2e8e5f0df85}, !- Construction Name
  ExteriorWall,                           !- Intended Surface Type
  Mass;                                   !- Standards Construction Type

OS:Material,
  {a3a6f027-802a-466d-b100-49973536ed2a}, !- Handle
  Wall Insulation [35],                   !- Name
  MediumRough,                            !- Roughness
  0.0452,                                 !- Thickness {m}
  0.0432,                                 !- Conductivity {W/m-K}
  91,                                     !- Density {kg/m3}
  836.999999999999,                       !- Specific Heat {J/kg-K}
  0.9,                                    !- Thermal Absorptance
  0.5,                                    !- Solar Absorptance
  0.5;                                    !- Visible Absorptance

OS:Construction,
  {c47ca562-46b9-4405-9572-381702ed1bb3}, !- Handle
  ASHRAE 189.1-2009 ExtWall Mass ClimateZone 3, !- Name
  ,                                       !- Surface Rendering Name
  {99ea25d5-f824-41c8-9b58-788ff8df8d4c}, !- Layer 1
  {ac38fde9-3059-40a4-bbd1-bc7a190e88ad}, !- Layer 2
  {6f276262-5491-4b9a-a857-70fca596ac61}, !- Layer 3
  {6f391e38-687e-465c-a27e-61903a679432}; !- Layer 4

OS:StandardsInformation:Construction,
  {49c8ea27-807b-44c9-a88c-63eeed442695}, !- Handle
  {c47ca562-46b9-4405-9572-381702ed1bb3}, !- Construction Name
  ExteriorWall,                           !- Intended Surface Type
  Mass;                                   !- Standards Construction Type

OS:Material,
  {6f276262-5491-4b9a-a857-70fca596ac61}, !- Handle
  Wall Insulation [36],                   !- Name
  MediumRough,                            !- Roughness
  0.0565999999999999,                     !- Thickness {m}
  0.0432,                                 !- Conductivity {W/m-K}
  91,                                     !- Density {kg/m3}
  836.999999999999,                       !- Specific Heat {J/kg-K}
  0.9,                                    !- Thermal Absorptance
  0.5,                                    !- Solar Absorptance
  0.5;                                    !- Visible Absorptance

OS:Construction,
  {48e4c0c7-93fb-419b-ba9f-65859b14eafa}, !- Handle
  ASHRAE 189.1-2009 ExtWall Mass ClimateZone 4, !- Name
  ,                                       !- Surface Rendering Name
  {99ea25d5-f824-41c8-9b58-788ff8df8d4c}, !- Layer 1
  {ac38fde9-3059-40a4-bbd1-bc7a190e88ad}, !- Layer 2
  {b65a7268-1a89-44be-b51b-a7d6966fa5e8}, !- Layer 3
  {6f391e38-687e-465c-a27e-61903a679432}; !- Layer 4

OS:StandardsInformation:Construction,
  {1d99c531-447b-4dd0-82c9-ef177e959397}, !- Handle
  {48e4c0c7-93fb-419b-ba9f-65859b14eafa}, !- Construction Name
  ExteriorWall,                           !- Intended Surface Type
  Mass;                                   !- Standards Construction Type

OS:Material,
  {b65a7268-1a89-44be-b51b-a7d6966fa5e8}, !- Handle
  Wall Insulation [37],                   !- Name
  MediumRough,                            !- Roughness
  0.0680999999999999,                     !- Thickness {m}
  0.0432,                                 !- Conductivity {W/m-K}
  91,                                     !- Density {kg/m3}
  836.999999999999,                       !- Specific Heat {J/kg-K}
  0.9,                                    !- Thermal Absorptance
  0.5,                                    !- Solar Absorptance
  0.5;                                    !- Visible Absorptance

OS:Construction,
  {ae892c94-bb75-4294-ae06-f23ca5fee7d2}, !- Handle
  ASHRAE 189.1-2009 ExtWall Mass ClimateZone 5, !- Name
  ,                                       !- Surface Rendering Name
  {99ea25d5-f824-41c8-9b58-788ff8df8d4c}, !- Layer 1
  {ac38fde9-3059-40a4-bbd1-bc7a190e88ad}, !- Layer 2
  {6d0c64fc-932c-4250-94d8-83749e31a4b2}, !- Layer 3
  {6f391e38-687e-465c-a27e-61903a679432}; !- Layer 4

OS:StandardsInformation:Construction,
  {62245454-f97e-4acb-a623-28887ac145fe}, !- Handle
  {ae892c94-bb75-4294-ae06-f23ca5fee7d2}, !- Construction Name
  ExteriorWall,                           !- Intended Surface Type
  Mass;                                   !- Standards Construction Type

OS:Material,
  {6d0c64fc-932c-4250-94d8-83749e31a4b2}, !- Handle
  Wall Insulation [40],                   !- Name
  MediumRough,                            !- Roughness
  0.0793999999999999,                     !- Thickness {m}
  0.0432,                                 !- Conductivity {W/m-K}
  91,                                     !- Density {kg/m3}
  836.999999999999,                       !- Specific Heat {J/kg-K}
  0.9,                                    !- Thermal Absorptance
  0.5,                                    !- Solar Absorptance
  0.5;                                    !- Visible Absorptance

OS:Construction,
  {de020875-fd69-4156-a575-c2bd8dad8e9e}, !- Handle
  ASHRAE 189.1-2009 ExtWall Mass ClimateZone 6, !- Name
  ,                                       !- Surface Rendering Name
  {99ea25d5-f824-41c8-9b58-788ff8df8d4c}, !- Layer 1
  {ac38fde9-3059-40a4-bbd1-bc7a190e88ad}, !- Layer 2
  {c5d05d4a-c5b0-4449-b1fb-1747f6622d76}, !- Layer 3
  {6f391e38-687e-465c-a27e-61903a679432}; !- Layer 4

OS:StandardsInformation:Construction,
  {7897c410-80a0-4e34-bd86-c7cd32bc9090}, !- Handle
  {de020875-fd69-4156-a575-c2bd8dad8e9e}, !- Construction Name
  ExteriorWall,                           !- Intended Surface Type
  Mass;                                   !- Standards Construction Type

OS:Material,
  {c5d05d4a-c5b0-4449-b1fb-1747f6622d76}, !- Handle
  Wall Insulation [42],                   !- Name
  MediumRough,                            !- Roughness
  0.0913999999999999,                     !- Thickness {m}
  0.0432,                                 !- Conductivity {W/m-K}
  91,                                     !- Density {kg/m3}
  836.999999999999,                       !- Specific Heat {J/kg-K}
  0.9,                                    !- Thermal Absorptance
  0.5,                                    !- Solar Absorptance
  0.5;                                    !- Visible Absorptance

OS:Construction,
  {2ed3ae23-9467-45bd-8233-b62815477ace}, !- Handle
  ASHRAE 189.1-2009 ExtWall Mass ClimateZone 7-8, !- Name
  ,                                       !- Surface Rendering Name
  {99ea25d5-f824-41c8-9b58-788ff8df8d4c}, !- Layer 1
  {ac38fde9-3059-40a4-bbd1-bc7a190e88ad}, !- Layer 2
  {edc29c98-ffd4-4e85-98ea-27f11a1ac1f1}, !- Layer 3
  {6f391e38-687e-465c-a27e-61903a679432}; !- Layer 4

OS:StandardsInformation:Construction,
  {6f300ed6-677e-4fac-92e6-0c0e2828e115}, !- Handle
  {2ed3ae23-9467-45bd-8233-b62815477ace}, !- Construction Name
  ExteriorWall,                           !- Intended Surface Type
  Mass;                                   !- Standards Construction Type

OS:Material,
  {edc29c98-ffd4-4e85-98ea-27f11a1ac1f1}, !- Handle
  Wall Insulation [44],                   !- Name
  MediumRough,                            !- Roughness
  0.1104,                                 !- Thickness {m}
  0.0432,                                 !- Conductivity {W/m-K}
  91,                                     !- Density {kg/m3}
  836.999999999999,                       !- Specific Heat {J/kg-K}
  0.9,                                    !- Thermal Absorptance
  0.5,                                    !- Solar Absorptance
  0.5;                                    !- Visible Absorptance

OS:Construction,
  {9a9da555-e477-4975-993d-1b4a6c64d8b6}, !- Handle
  ASHRAE 189.1-2009 ExtWall Mass ClimateZone alt-res 1, !- Name
  ,                                       !- Surface Rendering Name
  {99ea25d5-f824-41c8-9b58-788ff8df8d4c}, !- Layer 1
  {ac38fde9-3059-40a4-bbd1-bc7a190e88ad}, !- Layer 2
  {a3a6f027-802a-466d-b100-49973536ed2a}, !- Layer 3
  {6f391e38-687e-465c-a27e-61903a679432}; !- Layer 4

OS:StandardsInformation:Construction,
  {5b719fd2-d3fe-456b-a819-3a596e5a5c6b}, !- Handle
  {9a9da555-e477-4975-993d-1b4a6c64d8b6}, !- Construction Name
  ExteriorWall,                           !- Intended Surface Type
  Mass;                                   !- Standards Construction Type

OS:Construction,
  {e1334f45-7699-4777-a812-fffa325fd9c4}, !- Handle
  ASHRAE 189.1-2009 ExtWall Mass ClimateZone alt-res 2, !- Name
  ,                                       !- Surface Rendering Name
  {99ea25d5-f824-41c8-9b58-788ff8df8d4c}, !- Layer 1
  {ac38fde9-3059-40a4-bbd1-bc7a190e88ad}, !- Layer 2
  {6f276262-5491-4b9a-a857-70fca596ac61}, !- Layer 3
  {6f391e38-687e-465c-a27e-61903a679432}; !- Layer 4

OS:StandardsInformation:Construction,
  {01a54dc0-1176-440b-8d2d-f6536acf4d1e}, !- Handle
  {e1334f45-7699-4777-a812-fffa325fd9c4}, !- Construction Name
  ExteriorWall,                           !- Intended Surface Type
  Mass;                                   !- Standards Construction Type

OS:Construction,
  {390110d3-6932-4781-939f-f22fc95b5a11}, !- Handle
  ASHRAE 189.1-2009 ExtWall Mass ClimateZone alt-res 3, !- Name
  ,                                       !- Surface Rendering Name
  {99ea25d5-f824-41c8-9b58-788ff8df8d4c}, !- Layer 1
  {ac38fde9-3059-40a4-bbd1-bc7a190e88ad}, !- Layer 2
  {b65a7268-1a89-44be-b51b-a7d6966fa5e8}, !- Layer 3
  {6f391e38-687e-465c-a27e-61903a679432}; !- Layer 4

OS:StandardsInformation:Construction,
  {99177e86-f987-4ef8-93b8-ff7fe2cc94bf}, !- Handle
  {390110d3-6932-4781-939f-f22fc95b5a11}, !- Construction Name
  ExteriorWall,                           !- Intended Surface Type
  Mass;                                   !- Standards Construction Type

OS:Construction,
  {3031cb89-977d-4770-b75c-d6155247f4c2}, !- Handle
  ASHRAE 189.1-2009 ExtWall Mass ClimateZone alt-res 4, !- Name
  ,                                       !- Surface Rendering Name
  {99ea25d5-f824-41c8-9b58-788ff8df8d4c}, !- Layer 1
  {ac38fde9-3059-40a4-bbd1-bc7a190e88ad}, !- Layer 2
  {6d0c64fc-932c-4250-94d8-83749e31a4b2}, !- Layer 3
  {6f391e38-687e-465c-a27e-61903a679432}; !- Layer 4

OS:StandardsInformation:Construction,
  {1b6c96ab-7077-4a90-b09c-258495d8a3b8}, !- Handle
  {3031cb89-977d-4770-b75c-d6155247f4c2}, !- Construction Name
  ExteriorWall,                           !- Intended Surface Type
  Mass;                                   !- Standards Construction Type

OS:Construction,
  {f4eb106a-c16c-4107-8eb7-c2b7e3e0936d}, !- Handle
  ASHRAE 189.1-2009 ExtWall Mass ClimateZone alt-res 5, !- Name
  ,                                       !- Surface Rendering Name
  {99ea25d5-f824-41c8-9b58-788ff8df8d4c}, !- Layer 1
  {ac38fde9-3059-40a4-bbd1-bc7a190e88ad}, !- Layer 2
  {c5d05d4a-c5b0-4449-b1fb-1747f6622d76}, !- Layer 3
  {6f391e38-687e-465c-a27e-61903a679432}; !- Layer 4

OS:StandardsInformation:Construction,
  {4e1c811c-5987-4184-bad9-d93663c9a066}, !- Handle
  {f4eb106a-c16c-4107-8eb7-c2b7e3e0936d}, !- Construction Name
  ExteriorWall,                           !- Intended Surface Type
  Mass;                                   !- Standards Construction Type

OS:Construction,
  {4d06e5d8-75b2-4132-b001-7c80bbea4e26}, !- Handle
  ASHRAE 189.1-2009 ExtWall Mass ClimateZone alt-res 6, !- Name
  ,                                       !- Surface Rendering Name
  {99ea25d5-f824-41c8-9b58-788ff8df8d4c}, !- Layer 1
  {ac38fde9-3059-40a4-bbd1-bc7a190e88ad}, !- Layer 2
  {edc29c98-ffd4-4e85-98ea-27f11a1ac1f1}, !- Layer 3
  {6f391e38-687e-465c-a27e-61903a679432}; !- Layer 4

OS:StandardsInformation:Construction,
  {9dfd7f55-1697-4549-ac04-8e913a55d326}, !- Handle
  {4d06e5d8-75b2-4132-b001-7c80bbea4e26}, !- Construction Name
  ExteriorWall,                           !- Intended Surface Type
  Mass;                                   !- Standards Construction Type

OS:Construction,
  {44e9c60d-0d9b-44d4-ac35-0840e65e5cc4}, !- Handle
  ASHRAE 189.1-2009 ExtWall Mass ClimateZone alt-res 7, !- Name
  ,                                       !- Surface Rendering Name
  {99ea25d5-f824-41c8-9b58-788ff8df8d4c}, !- Layer 1
  {ac38fde9-3059-40a4-bbd1-bc7a190e88ad}, !- Layer 2
  {edc29c98-ffd4-4e85-98ea-27f11a1ac1f1}, !- Layer 3
  {6f391e38-687e-465c-a27e-61903a679432}; !- Layer 4

OS:StandardsInformation:Construction,
  {a175525c-6972-47e8-974b-e1db7b8018d1}, !- Handle
  {44e9c60d-0d9b-44d4-ac35-0840e65e5cc4}, !- Construction Name
  ExteriorWall,                           !- Intended Surface Type
  Mass;                                   !- Standards Construction Type

OS:Construction,
  {65f7a0b7-20ad-4eb0-89be-a41ac21d9c17}, !- Handle
  ASHRAE 189.1-2009 ExtWall Mass ClimateZone alt-res 8, !- Name