
OS:Version,
  {c77360c6-c348-45ae-8ae3-33008e8c2154}, !- Handle
  1.3.0;                                  !- Version Identifier

OS:Construction,
  {00c34c2b-ff86-453d-9bad-808c9cd4ce07}, !- Handle
  ASHRAE 189.1-2009 AtticFloor ClimateZone 1-8, !- Name
  ,                                       !- Surface Rendering Name
  {74823568-4ac2-4b9c-b596-9550fc7588e2}, !- Layer 1
  {e53eecff-1d6d-4c34-a016-ba291aa7f914}, !- Layer 2
  {74823568-4ac2-4b9c-b596-9550fc7588e2}; !- Layer 3

OS:StandardsInformation:Construction,
  {21d10ab5-f8a2-4fac-8858-26cc73c342db}, !- Handle
  {00c34c2b-ff86-453d-9bad-808c9cd4ce07}, !- Construction Name
  AtticFloor,                             !- Intended Surface Type
  WoodFramed;                             !- Standards Construction Type

OS:Material,
  {74823568-4ac2-4b9c-b596-9550fc7588e2}, !- Handle
  1/2IN Gypsum,                           !- Name
  Smooth,                                 !- Roughness
  0.0127,                                 !- Thickness {m}
  0.16,                                   !- Conductivity {W/m-K}
  784.9,                                  !- Density {kg/m3}
  830.000000000001,                       !- Specific Heat {J/kg-K}
  0.9,                                    !- Thermal Absorptance
  0.92,                                   !- Solar Absorptance
  0.92;                                   !- Visible Absorptance

OS:Material,
  {e53eecff-1d6d-4c34-a016-ba291aa7f914}, !- Handle
  AtticFloor Insulation,                  !- Name
  MediumRough,                            !- Roughness
  0.2379,                                 !- Thickness {m}
  0.049,                                  !- Conductivity {W/m-K}
  265,                                    !- Density {kg/m3}
  836.800000000001,                       !- Specific Heat {J/kg-K}
  0.9,                                    !- Thermal Absorptance
  0.7,                                    !- Solar Absorptance
  0.7;                                    !- Visible Absorptance

OS:Construction,
  {d25c799a-294b-411d-bca9-cfcd9fde701d}, !- Handle
  ASHRAE 189.1-2009 ExtRoof IEAD ClimateZone 1, !- Name
  ,                                       !- Surface Rendering Name
  {4adc3a9b-2163-4e75-a077-8720ceb5967a}, !- Layer 1
  {08b0ce74-a6a7-42eb-b716-b3532501dace}, !- Layer 2
  {f4a296b2-7e0f-4a24-b0fa-11c27363c797}; !- Layer 3

OS:StandardsInformation:Construction,
  {1fc64e95-cb6d-4a81-b404-0fa176acf590}, !- Handle
  {d25c799a-294b-411d-bca9-cfcd9fde701d}, !- Construction Name
  ExteriorRoof,                           !- Intended Surface Type
  IEAD;                                   !- Standards Construction Type

OS:Material,
  {4adc3a9b-2163-4e75-a077-8720ceb5967a}, !- Handle
  Roof Membrane,                          !- Name
  VeryRough,                              !- Roughness
  0.0095,                                 !- Thickness {m}
  0.16,                                   !- Conductivity {W/m-K}
  1121.29,                                !- Density {kg/m3}
  1460,                                   !- Specific Heat {J/kg-K}
  0.9,                                    !- Thermal Absorptance
  0.7,                                    !- Solar Absorptance
  0.7;                                    !- Visible Absorptance

OS:Material,
  {08b0ce74-a6a7-42eb-b716-b3532501dace}, !- Handle
  Roof Insulation [18],                   !- Name
  MediumRough,                            !- Roughness
  0.1693,                                 !- Thickness {m}
  0.049,                                  !- Conductivity {W/m-K}
  265,                                    !- Density {kg/m3}
  836.800000000001,                       !- Specific Heat {J/kg-K}
  0.9,                                    !- Thermal Absorptance
  0.7,                                    !- Solar Absorptance
  0.7;                                    !- Visible Absorptance

OS:Material,
  {f4a296b2-7e0f-4a24-b0fa-11c27363c797}, !- Handle
  Metal Decking,                          !- Name
  MediumSmooth,                           !- Roughness
  0.0015,                                 !- Thickness {m}
  45.006,                                 !- Conductivity {W/m-K}
  7680,                                   !- Density {kg/m3}
  418.4,                                  !- Specific Heat {J/kg-K}
  0.9,                                    !- Thermal Absorptance
  0.7,                                    !- Solar Absorptance
  0.3;                                    !- Visible Absorptance

OS:Construction,
  {f97bb27c-b145-4f99-b979-9b552b1c96d5}, !- Handle
  ASHRAE 189.1-2009 ExtRoof IEAD ClimateZone 2-5, !- Name
  ,                                       !- Surface Rendering Name
  {4adc3a9b-2163-4e75-a077-8720ceb5967a}, !- Layer 1
  {4543a4c5-1c28-48e2-96f4-83958fbf3881}, !- Layer 2
  {f4a296b2-7e0f-4a24-b0fa-11c27363c797}; !- Layer 3

OS:StandardsInformation:Construction,
  {b0eaa068-710a-4a0a-aef8-7d58f3377c60}, !- Handle
  {f97bb27c-b145-4f99-b979-9b552b1c96d5}, !- Construction Name
  ExteriorRoof,                           !- Intended Surface Type
  IEAD;                                   !- Standards Construction Type

OS:Material,
  {4543a4c5-1c28-48e2-96f4-83958fbf3881}, !- Handle
  Roof Insulation [21],                   !- Name
  MediumRough,                            !- Roughness
  0.2105,                                 !- Thickness {m}
  0.049,                                  !- Conductivity {W/m-K}
  265,                                    !- Density {kg/m3}
  836.800000000001,                       !- Specific Heat {J/kg-K}
  0.9,                                    !- Thermal Absorptance
  0.7,                                    !- Solar Absorptance
  0.7;                                    !- Visible Absorptance

OS:Construction,
  {5f74d812-e31e-48dc-9bce-8ec0e82ed752}, !- Handle
  ASHRAE 189.1-2009 ExtRoof IEAD ClimateZone 6, !- Name
  ,                                       !- Surface Rendering Name
  {4adc3a9b-2163-4e75-a077-8720ceb5967a}, !- Layer 1
  {a060e264-7cd2-4a77-980a-d7228e9ff4ed}, !- Layer 2
  {f4a296b2-7e0f-4a24-b0fa-11c27363c797}; !- Layer 3

OS:StandardsInformation:Construction,
  {f57406cf-3dee-4acb-bfe7-0553565e1dd1}, !- Handle
  {5f74d812-e31e-48dc-9bce-8ec0e82ed752}, !- Construction Name
  ExteriorRoof,                           !- Intended Surface Type
  IEAD;                                   !- Standards Construction Type

OS:Material,
  {a060e264-7cd2-4a77-980a-d7228e9ff4ed}, !- Handle
  Roof Insulation [24],                   !- Name
  MediumRough,                            !- Roughness
  0.260100000000001,                      !- Thickness {m}
  0.049,                                  !- Conductivity {W/m-K}
  265,                                    !- Density {kg/m3}
  836.800000000001,                       !- Specific Heat {J/kg-K}
  0.9,                                    !- Thermal Absorptance
  0.7,                                    !- Solar Absorptance
  0.7;                                    !- Visible Absorptance

OS:Construction,
  {506cee61-986d-493b-9865-6b0e52c8b1e9}, !- Handle
  ASHRAE 189.1-2009 ExtRoof IEAD ClimateZone 7-8, !- Name
  ,                                       !- Surface Rendering Name
  {4adc3a9b-2163-4e75-a077-8720ceb5967a}, !- Layer 1
  {f6e000da-14cb-4e0a-8b0d-1e13be76467c}, !- Layer 2
  {f4a296b2-7e0f-4a24-b0fa-11c27363c797}; !- Layer 3

OS:StandardsInformation:Construction,
  {e0b775ff-f67e-42eb-9eb2-9ca2246dc4a8}, !- Handle
  {506cee61-986d-493b-9865-6b0e52c8b1e9}, !- Construction Name
  ExteriorRoof,                           !- Intended Surface Type
  IEAD;                                   !- Standards Construction Type

OS:Material,
  {f6e000da-14cb-4e0a-8b0d-1e13be76467c}, !- Handle
  Roof Insulation [26],                   !- Name
  MediumRough,                            !- Roughness
  0.2941,                                 !- Thickness {m}
  0.049,                                  !- Conductivity {W/m-K}
  265,                                    !- Density {kg/m3}
  836.800000000001,                       !- Specific Heat {J/kg-K}
  0.9,                                    !- Thermal Absorptance
  0.7,                                    !- Solar Absorptance
  0.7;                                    !- Visible Absorptance

OS:Construction,
  {f946938a-004f-45ee-ab34-eae975471597}, !- Handle
  ASHRAE 189.1-2009 ExtRoof Metal ClimateZone 1, !- Name
  ,                                       !- Surface Rendering Name
  {ba165fda-623b-4c4d-836a-2a173b96063e}, !- Layer 1
  {02ff891a-0373-4b2d-8f0e-897fe9362422}; !- Layer 2

OS:StandardsInformation:Construction,
  {66bb9d7d-265b-4df5-b3df-43a12c9f2445}, !- Handle
  {f946938a-004f-45ee-ab34-eae975471597}, !- Construction Name
  ExteriorRoof,                           !- Intended Surface Type
  Metal;                                  !- Standards Construction Type

OS:Material,
  {ba165fda-623b-4c4d-836a-2a173b96063e}, !- Handle
  Metal Roofing,                          !- Name
  MediumSmooth,                           !- Roughness
  0.0015,                                 !- Thickness {m}
  45.006,                                 !- Conductivity {W/m-K}
  7680,                                   !- Density {kg/m3}
  418.4,                                  !- Specific Heat {J/kg-K}
  0.9,                                    !- Thermal Absorptance
  0.3,                                    !- Solar Absorptance
  0.3;                                    !- Visible Absorptance

OS:Material,
  {02ff891a-0373-4b2d-8f0e-897fe9362422}, !- Handle
  Roof Insulation [19],                   !- Name
  MediumRough,                            !- Roughness
  0.1868,                                 !- Thickness {m}
  0.049,                                  !- Conductivity {W/m-K}
  265,                                    !- Density {kg/m3}
  836.800000000001,                       !- Specific Heat {J/kg-K}
  0.9,                                    !- Thermal Absorptance
  0.7,                                    !- Solar Absorptance
  0.7;                                    !- Visible Absorptance

OS:Construction,
  {7275e2a4-b188-4fdc-a338-dd0cf6e1d062}, !- Handle
  ASHRAE 189.1-2009 ExtRoof Metal ClimateZone 2-5, !- Name
  ,                                       !- Surface Rendering Name
  {ba165fda-623b-4c4d-836a-2a173b96063e}, !- Layer 1
  {ac135b2b-ddbe-4ce3-998e-0d56f680e03a}; !- Layer 2

OS:StandardsInformation:Construction,
  {6344d7de-d9b4-4131-ad30-2836a394a13e}, !- Handle
  {7275e2a4-b188-4fdc-a338-dd0cf6e1d062}, !- Construction Name
  ExteriorRoof,                           !- Intended Surface Type
  Metal;                                  !- Standards Construction Type

OS:Material,
  {ac135b2b-ddbe-4ce3-998e-0d56f680e03a}, !- Handle
  Roof Insulation [22],                   !- Name
  MediumRough,                            !- Roughness
  0.2358,                                 !- Thickness {m}
  0.049,                                  !- Conductivity {W/m-K}
  265,                                    !- Density {kg/m3}
  836.800000000001,                       !- Specific Heat {J/kg-K}
  0.9,                                    !- Thermal Absorptance
  0.7,                                    !- Solar Absorptance
  0.7;                                    !- Visible Absorptance

OS:Construction,
  {2be03c30-a1b0-40a2-aece-fdf03caa34fb}, !- Handle
  ASHRAE 189.1-2009 ExtRoof Metal ClimateZone 6, !- Name
  ,                                       !- Surface Rendering Name
  {ba165fda-623b-4c4d-836a-2a173b96063e}, !- Layer 1
  {53009cf7-f029-4e96-b4e0-d2bcaaf6db30}; !- Layer 2

OS:StandardsInformation:Construction,
  {6d413652-5f85-4a8c-b3f8-522ab7d8e18f}, !- Handle
  {2be03c30-a1b0-40a2-aece-fdf03caa34fb}, !- Construction Name
  ExteriorRoof,                           !- Intended Surface Type
  Metal;                                  !- Standards Construction Type

OS:Material,
  {53009cf7-f029-4e96-b4e0-d2bcaaf6db30}, !- Handle
  Roof Insulation [25],                   !- Name
  MediumRough,                            !- Roughness
  0.263,                                  !- Thickness {m}
  0.049,                                  !- Conductivity {W/m-K}
  265,                                    !- Density {kg/m3}
  836.800000000001,                       !- Specific Heat {J/kg-K}
  0.9,                                    !- Thermal Absorptance
  0.7,                                    !- Solar Absorptance
  0.7;                                    !- Visible Absorptance

OS:Construction,
  {5f05bcb4-acd7-493a-b7ea-ae9915a45de1}, !- Handle
  ASHRAE 189.1-2009 ExtRoof Metal ClimateZone 7-8, !- Name
  ,                                       !- Surface Rendering Name
  {ba165fda-623b-4c4d-836a-2a173b96063e}, !- Layer 1
  {caafbbd6-c88e-4d28-b854-e6bf6ce169b9}; !- Layer 2

OS:StandardsInformation:Construction,
  {212fce5f-a4ac-4aee-810e-974da3931ffc}, !- Handle
  {5f05bcb4-acd7-493a-b7ea-ae9915a45de1}, !- Construction Name
  ExteriorRoof,                           !- Intended Surface Type
  Metal;                                  !- Standards Construction Type

OS:Material,
  {caafbbd6-c88e-4d28-b854-e6bf6ce169b9}, !- Handle
  Roof Insulation [27],                   !- Name
  MediumRough,                            !- Roughness
  0.297000000000001,                      !- Thickness {m}
  0.049,                                  !- Conductivity {W/m-K}
  265,                                    !- Density {kg/m3}
  836.800000000001,                       !- Specific Heat {J/kg-K}
  0.9,                                    !- Thermal Absorptance
  0.7,                                    !- Solar Absorptance
  0.7;                                    !- Visible Absorptance

OS:Construction,
  {b4e35fb7-3909-49ef-9543-0207e6fffe3b}, !- Handle
  ASHRAE 189.1-2009 ExtWall Mass ClimateZone 1, !- Name
  ,                                       !- Surface Rendering Name
  {28ca79f2-3b99-49e3-864e-66cb4bc9da25}, !- Layer 1
  {1628242b-7ee8-4964-828f-384ad3840e5d}, !- Layer 2
  {170d6501-08fb-48e4-b042-3fba103f503f}, !- Layer 3
  {74823568-4ac2-4b9c-b596-9550fc7588e2}; !- Layer 4

OS:StandardsInformation:Construction,
  {1b45dc8b-2a9d-4e4a-9064-607743a9e7fc}, !- Handle
  {b4e35fb7-3909-49ef-9543-0207e6fffe3b}, !- Construction Name
  ExteriorWall,                           !- Intended Surface Type
  Mass;                                   !- Standards Construction Type

OS:Material,
  {28ca79f2-3b99-49e3-864e-66cb4bc9da25}, !- Handle
  1IN Stucco,                             !- Name
  Smooth,                                 !- Roughness
  0.0253,                                 !- Thickness {m}
  0.691799999999999,                      !- Conductivity {W/m-K}
  1858,                                   !- Density {kg/m3}
  836.999999999999,                       !- Specific Heat {J/kg-K}
  0.9,                                    !- Thermal Absorptance
  0.92,                                   !- Solar Absorptance
  0.92;                                   !- Visible Absorptance

OS:Material,
  {1628242b-7ee8-4964-828f-384ad3840e5d}, !- Handle
  8IN Concrete HW,                        !- Name
  MediumRough,                            !- Roughness
  0.2033,                                 !- Thickness {m}
  1.72959999999999,                       !- Conductivity {W/m-K}
  2242.99999999999,                       !- Density {kg/m3}
  836.999999999999,                       !- Specific Heat {J/kg-K}
  0.9,                                    !- Thermal Absorptance
  0.65,                                   !- Solar Absorptance
  0.65;                                   !- Visible Absorptance

OS:Material,
  {170d6501-08fb-48e4-b042-3fba103f503f}, !- Handle
  Wall Insulation [31],                   !- Name
  MediumRough,                            !- Roughness
  0.0337000000000001,                     !- Thickness {m}
  0.0432,                                 !- Conductivity {W/m-K}
  91,                                     !- Density {kg/m3}
  836.999999999999,                       !- Specific Heat {J/kg-K}
  0.9,                                    !- Thermal Absorptance
  0.5,                                    !- Solar Absorptance
  0.5;                                    !- Visible Absorptance

OS:Construction,
  {fd333d35-945f-4bcf-87e6-7918e4ce26e3}, !- Handle
  ASHRAE 189.1-2009 ExtWall Mass ClimateZone 2, !- Name
  ,                                       !- Surface Rendering Name
  {28ca79f2-3b99-49e3-864e-66cb4bc9da25}, !- Layer 1
  {1628242b-7ee8-4964-828f-384ad3840e5d}, !- Layer 2
  {230793df-709c-48f3-b48b-dfc7ba9b635e}, !- Layer 3
  {74823568-4ac2-4b9c-b596-9550fc7588e2}; !- Layer 4

OS:StandardsInformation:Construction,
  {7766301c-d1d5-41c5-aa99-e3a47473887c}, !- Handle
  {fd333d35-945f-4bcf-87e6-7918e4ce26e3}, !- Construction Name
  ExteriorWall,                           !- Intended Surface Type
  Mass;                                   !- Standards Construction Type

OS:Material,
  {230793df-709c-48f3-b48b-dfc7ba9b635e}, !- Handle
  Wall Insulation [35],                   !- Name
  MediumRough,                            !- Roughness
  0.0452,                                 !- Thickness {m}
  0.0432,                                 !- Conductivity {W/m-K}
  91,                                     !- Density {kg/m3}
  836.999999999999,                       !- Specific Heat {J/kg-K}
  0.9,                                    !- Thermal Absorptance
  0.5,                                    !- Solar Absorptance
  0.5;                                    !- Visible Absorptance

OS:Construction,
  {ed4ec534-08ca-4b7e-960e-5ecc15ca9961}, !- Handle
  ASHRAE 189.1-2009 ExtWall Mass ClimateZone 3, !- Name
  ,                                       !- Surface Rendering Name
  {28ca79f2-3b99-49e3-864e-66cb4bc9da25}, !- Layer 1
  {1628242b-7ee8-4964-828f-384ad3840e5d}, !- Layer 2
  {33ec4fbe-8d35-4c00-950f-4c126f315ce8}, !- Layer 3
  {74823568-4ac2-4b9c-b596-9550fc7588e2}; !- Layer 4

OS:StandardsInformation:Construction,
  {bf98d7fe-968a-443e-9c17-fbf7aebc930b}, !- Handle
  {ed4ec534-08ca-4b7e-960e-5ecc15ca9961}, !- Construction Name
  ExteriorWall,                           !- Intended Surface Type
  Mass;                                   !- Standards Construction Type

OS:Material,
  {33ec4fbe-8d35-4c00-950f-4c126f315ce8}, !- Handle
  Wall Insulation [36],                   !- Name
  MediumRough,                            !- Roughness
  0.0565999999999999,                     !- Thickness {m}
  0.0432,                                 !- Conductivity {W/m-K}
  91,                                     !- Density {kg/m3}
  836.999999999999,                       !- Specific Heat {J/kg-K}
  0.9,                                    !- Thermal Absorptance
  0.5,                                    !- Solar Absorptance
  0.5;                                    !- Visible Absorptance

OS:Construction,
  {eb5f21ae-3655-47d5-9c3d-cba5046e0bfc}, !- Handle
  ASHRAE 189.1-2009 ExtWall Mass ClimateZone 4, !- Name
  ,                                       !- Surface Rendering Name
  {28ca79f2-3b99-49e3-864e-66cb4bc9da25}, !- Layer 1
  {1628242b-7ee8-4964-828f-384ad3840e5d}, !- Layer 2
  {90574a2d-d86a-4571-81f9-a02695ef734b}, !- Layer 3
  {74823568-4ac2-4b9c-b596-9550fc7588e2}; !- Layer 4

OS:StandardsInformation:Construction,
  {8d735e92-21dd-49cb-b00a-0b820cf9607b}, !- Handle
  {eb5f21ae-3655-47d5-9c3d-cba5046e0bfc}, !- Construction Name
  ExteriorWall,                           !- Intended Surface Type
  Mass;                                   !- Standards Construction Type

OS:Material,
  {90574a2d-d86a-4571-81f9-a02695ef734b}, !- Handle
  Wall Insulation [37],                   !- Name
  MediumRough,                            !- Roughness
  0.0680999999999999,                     !- Thickness {m}
  0.0432,                                 !- Conductivity {W/m-K}
  91,                                     !- Density {kg/m3}
  836.999999999999,                       !- Specific Heat {J/kg-K}
  0.9,                                    !- Thermal Absorptance
  0.5,                                    !- Solar Absorptance
  0.5;                                    !- Visible Absorptance

OS:Construction,
  {00b28b9a-018b-4fe4-b417-ff35ea039a53}, !- Handle
  ASHRAE 189.1-2009 ExtWall Mass ClimateZone 5, !- Name
  ,                                       !- Surface Rendering Name
  {28ca79f2-3b99-49e3-864e-66cb4bc9da25}, !- Layer 1
  {1628242b-7ee8-4964-828f-384ad3840e5d}, !- Layer 2
  {748fc5c6-46e1-463a-ae5f-c3a5ba37c2d4}, !- Layer 3
  {74823568-4ac2-4b9c-b596-9550fc7588e2}; !- Layer 4

OS:StandardsInformation:Construction,
  {a7a40347-b26e-4961-9dc9-8f9ff60004ea}, !- Handle
  {00b28b9a-018b-4fe4-b417-ff35ea039a53}, !- Construction Name
  ExteriorWall,                           !- Intended Surface Type
  Mass;                                   !- Standards Construction Type

OS:Material,
  {748fc5c6-46e1-463a-ae5f-c3a5ba37c2d4}, !- Handle
  Wall Insulation [40],                   !- Name
  MediumRough,                            !- Roughness
  0.0793999999999999,                     !- Thickness {m}
  0.0432,                                 !- Conductivity {W/m-K}
  91,                                     !- Density {kg/m3}
  836.999999999999,                       !- Specific Heat {J/kg-K}
  0.9,                                    !- Thermal Absorptance
  0.5,                                    !- Solar Absorptance
  0.5;                                    !- Visible Absorptance

OS:Construction,
  {8369f740-dac7-4bee-8ba0-cd0bb6bd6cf1}, !- Handle
  ASHRAE 189.1-2009 ExtWall Mass ClimateZone 6, !- Name
  ,                                       !- Surface Rendering Name
  {28ca79f2-3b99-49e3-864e-66cb4bc9da25}, !- Layer 1
  {1628242b-7ee8-4964-828f-384ad3840e5d}, !- Layer 2
  {4fb76a7a-c9ae-47c5-b552-71c6524cf57b}, !- Layer 3
  {74823568-4ac2-4b9c-b596-9550fc7588e2}; !- Layer 4

OS:StandardsInformation:Construction,
  {2ee6f40f-9cd8-4b5a-9a62-a5be18cb18bb}, !- Handle
  {8369f740-dac7-4bee-8ba0-cd0bb6bd6cf1}, !- Construction Name
  ExteriorWall,                           !- Intended Surface Type
  Mass;                                   !- Standards Construction Type

OS:Material,
  {4fb76a7a-c9ae-47c5-b552-71c6524cf57b}, !- Handle
  Wall Insulation [42],                   !- Name
  MediumRough,                            !- Roughness
  0.0913999999999999,                     !- Thickness {m}
  0.0432,                                 !- Conductivity {W/m-K}
  91,                                     !- Density {kg/m3}
  836.999999999999,                       !- Specific Heat {J/kg-K}
  0.9,                                    !- Thermal Absorptance
  0.5,                                    !- Solar Absorptance
  0.5;                                    !- Visible Absorptance

OS:Construction,
  {ebadcd4a-d2f9-4424-9fdc-71e01beb69d6}, !- Handle
  ASHRAE 189.1-2009 ExtWall Mass ClimateZone 7-8, !- Name
  ,                                       !- Surface Rendering Name
  {28ca79f2-3b99-49e3-864e-66cb4bc9da25}, !- Layer 1
  {1628242b-7ee8-4964-828f-384ad3840e5d}, !- Layer 2
  {ca6d565b-8181-4841-bae1-5cadc8b6fb7b}, !- Layer 3
  {74823568-4ac2-4b9c-b596-9550fc7588e2}; !- Layer 4

OS:StandardsInformation:Construction,
  {d4f691d1-1734-4a59-bb34-02486892f237}, !- Handle
  {ebadcd4a-d2f9-4424-9fdc-71e01beb69d6}, !- Construction Name
  ExteriorWall,                           !- Intended Surface Type
  Mass;                                   !- Standards Construction Type

OS:Material,
  {ca6d565b-8181-4841-bae1-5cadc8b6fb7b}, !- Handle
  Wall Insulation [44],                   !- Name
  MediumRough,                            !- Roughness
  0.1104,                                 !- Thickness {m}
  0.0432,                                 !- Conductivity {W/m-K}
  91,                                     !- Density {kg/m3}
  836.999999999999,                       !- Specific Heat {J/kg-K}
  0.9,                                    !- Thermal Absorptance
  0.5,                                    !- Solar Absorptance
  0.5;                                    !- Visible Absorptance

OS:Construction,
  {52438583-af6b-4d9d-975f-b843931fa416}, !- Handle
  ASHRAE 189.1-2009 ExtWall Mass ClimateZone alt-res 1, !- Name
  ,                                       !- Surface Rendering Name
  {28ca79f2-3b99-49e3-864e-66cb4bc9da25}, !- Layer 1
  {1628242b-7ee8-4964-828f-384ad3840e5d}, !- Layer 2
  {230793df-709c-48f3-b48b-dfc7ba9b635e}, !- Layer 3
  {74823568-4ac2-4b9c-b596-9550fc7588e2}; !- Layer 4

OS:StandardsInformation:Construction,
  {c7f526a2-1170-405e-a4bf-ae873988a44b}, !- Handle
  {52438583-af6b-4d9d-975f-b843931fa416}, !- Construction Name
  ExteriorWall,                           !- Intended Surface Type
  Mass;                                   !- Standards Construction Type

OS:Construction,
  {0769ae08-e212-417d-85b5-d599905d05bf}, !- Handle
  ASHRAE 189.1-2009 ExtWall Mass ClimateZone alt-res 2, !- Name
  ,                                       !- Surface Rendering Name
  {28ca79f2-3b99-49e3-864e-66cb4bc9da25}, !- Layer 1
  {1628242b-7ee8-4964-828f-384ad3840e5d}, !- Layer 2
  {33ec4fbe-8d35-4c00-950f-4c126f315ce8}, !- Layer 3
  {74823568-4ac2-4b9c-b596-9550fc7588e2}; !- Layer 4

OS:StandardsInformation:Construction,
  {c4549377-aa7f-4688-b4a0-f86a5f412770}, !- Handle
  {0769ae08-e212-417d-85b5-d599905d05bf}, !- Construction Name
  ExteriorWall,                           !- Intended Surface Type
  Mass;                                   !- Standards Construction Type

OS:Construction,
  {44a22648-e377-4336-8453-6ab4bbbd372f}, !- Handle
  ASHRAE 189.1-2009 ExtWall Mass ClimateZone alt-res 3, !- Name
  ,                                       !- Surface Rendering Name
  {28ca79f2-3b99-49e3-864e-66cb4bc9da25}, !- Layer 1
  {1628242b-7ee8-4964-828f-384ad3840e5d}, !- Layer 2
  {90574a2d-d86a-4571-81f9-a02695ef734b}, !- Layer 3
  {74823568-4ac2-4b9c-b596-9550fc7588e2}; !- Layer 4

OS:StandardsInformation:Construction,
  {432b8a7b-77bc-43df-af14-e640e2cd8dd7}, !- Handle
  {44a22648-e377-4336-8453-6ab4bbbd372f}, !- Construction Name
  ExteriorWall,                           !- Intended Surface Type
  Mass;                                   !- Standards Construction Type

OS:Construction,
  {32121c41-b1b7-44f4-bdfb-0429f31cc355}, !- Handle
  ASHRAE 189.1-2009 ExtWall Mass ClimateZone alt-res 4, !- Name
  ,                                       !- Surface Rendering Name
  {28ca79f2-3b99-49e3-864e-66cb4bc9da25}, !- Layer 1
  {1628242b-7ee8-4964-828f-384ad3840e5d}, !- Layer 2
  {748fc5c6-46e1-463a-ae5f-c3a5ba37c2d4}, !- Layer 3
  {74823568-4ac2-4b9c-b596-9550fc7588e2}; !- Layer 4

OS:StandardsInformation:Construction,
  {e1850098-a0ad-444e-8cde-988f7d88ab0d}, !- Handle
  {32121c41-b1b7-44f4-bdfb-0429f31cc355}, !- Construction Name
  ExteriorWall,                           !- Intended Surface Type
  Mass;                                   !- Standards Construction Type

OS:Construction,
  {5eae623a-2232-46bc-9c80-6b3a97b9137a}, !- Handle
  ASHRAE 189.1-2009 ExtWall Mass ClimateZone alt-res 5, !- Name
  ,                                       !- Surface Rendering Name
  {28ca79f2-3b99-49e3-864e-66cb4bc9da25}, !- Layer 1
  {1628242b-7ee8-4964-828f-384ad3840e5d}, !- Layer 2
  {4fb76a7a-c9ae-47c5-b552-71c6524cf57b}, !- Layer 3
  {74823568-4ac2-4b9c-b596-9550fc7588e2}; !- Layer 4

OS:StandardsInformation:Construction,
  {c5930457-5b93-4c8c-8c0b-1cca3c43ab4c}, !- Handle
  {5eae623a-2232-46bc-9c80-6b3a97b9137a}, !- Construction Name
  ExteriorWall,                           !- Intended Surface Type
  Mass;                                   !- Standards Construction Type

OS:Construction,
  {994dd34b-d141-431e-86f5-e0bc22af67f7}, !- Handle
  ASHRAE 189.1-2009 ExtWall Mass ClimateZone alt-res 6, !- Name
  ,                                       !- Surface Rendering Name
  {28ca79f2-3b99-49e3-864e-66cb4bc9da25}, !- Layer 1
  {1628242b-7ee8-4964-828f-384ad3840e5d}, !- Layer 2
  {ca6d565b-8181-4841-bae1-5cadc8b6fb7b}, !- Layer 3
  {74823568-4ac2-4b9c-b596-9550fc7588e2}; !- Layer 4

OS:StandardsInformation:Construction,
  {fb00343d-78da-415a-81d9-a82f4bb31eb1}, !- Handle
  {994dd34b-d141-431e-86f5-e0bc22af67f7}, !- Construction Name
  ExteriorWall,                           !- Intended Surface Type
  Mass;                                   !- Standards Construction Type

OS:Construction,
  {09c02793-eb39-4982-90e7-b2dbe1067c4c}, !- Handle
  ASHRAE 189.1-2009 ExtWall Mass ClimateZone alt-res 7, !- Name
  ,                                       !- Surface Rendering Name
  {28ca79f2-3b99-49e3-864e-66cb4bc9da25}, !- Layer 1
  {1628242b-7ee8-4964-828f-384ad3840e5d}, !- Layer 2
  {ca6d565b-8181-4841-bae1-5cadc8b6fb7b}, !- Layer 3
  {74823568-4ac2-4b9c-b596-9550fc7588e2}; !- Layer 4

OS:StandardsInformation:Construction,
  {08b09059-ec39-4e56-b841-0124d8eb3e69}, !- Handle
  {09c02793-eb39-4982-90e7-b2dbe1067c4c}, !- Construction Name
  ExteriorWall,                           !- Intended Surface Type
  Mass;                                   !- Standards Construction Type

OS:Construction,
  {d81650d5-3f3a-46fe-b1f0-16cbac1e7750}, !- Handle
  ASHRAE 189.1-2009 ExtWall Mass ClimateZone alt-res 8, !- Name