
OS:Version,
  {de8cbcb2-de41-4d01-8bf4-1df3a68da5b0}, !- Handle
  2.3.0;                                  !- Version Identifier

OS:Construction,
  {5fd64656-de0b-4189-b2cb-362278b35c5e}, !- Handle
  ASHRAE 189.1-2009 AtticFloor ClimateZone 1-8, !- Name
  ,                                       !- Surface Rendering Name
  {4c2f97cb-7422-4043-9241-b74d73429fa0}, !- Layer 1
  {2aa1ad87-13ee-4aa7-8f6d-ff6b3e6924c2}, !- Layer 2
  {4c2f97cb-7422-4043-9241-b74d73429fa0}; !- Layer 3

OS:StandardsInformation:Construction,
  {9547ec86-0af7-489c-be46-beed0eb0f794}, !- Handle
  {5fd64656-de0b-4189-b2cb-362278b35c5e}, !- Construction Name
  AtticFloor,                             !- Intended Surface Type
  WoodFramed,                             !- Standards Construction Type
  ,                                       !- Perturbable Layer
  ,                                       !- Perturbable Layer Type
  ,                                       !- Other Perturbable Layer Type
  ASHRAE 189.1-2009;                      !- Construction Standard

OS:Material,
  {4c2f97cb-7422-4043-9241-b74d73429fa0}, !- Handle
  1/2IN Gypsum,                           !- Name
  Smooth,                                 !- Roughness
  0.0127,                                 !- Thickness {m}
  0.16,                                   !- Conductivity {W/m-K}
  784.9,                                  !- Density {kg/m3}
  830.000000000001,                       !- Specific Heat {J/kg-K}
  0.9,                                    !- Thermal Absorptance
  0.4,                                    !- Solar Absorptance
  0.4;                                    !- Visible Absorptance

OS:StandardsInformation:Material,
  {cef68360-32b6-4938-9d6d-62e9ecd66512}, !- Handle
  {4c2f97cb-7422-4043-9241-b74d73429fa0}; !- Material Name

OS:Material,
  {2aa1ad87-13ee-4aa7-8f6d-ff6b3e6924c2}, !- Handle
  AtticFloor Insulation,                  !- Name
  MediumRough,                            !- Roughness
  0.2379,                                 !- Thickness {m}
  0.049,                                  !- Conductivity {W/m-K}
  265,                                    !- Density {kg/m3}
  836.800000000001,                       !- Specific Heat {J/kg-K}
  0.9,                                    !- Thermal Absorptance
  0.7,                                    !- Solar Absorptance
  0.7;                                    !- Visible Absorptance

OS:StandardsInformation:Material,
  {ee04d2f6-9645-4c07-86f5-ce68c9e7b966}, !- Handle
  {2aa1ad87-13ee-4aa7-8f6d-ff6b3e6924c2}; !- Material Name

OS:Construction,
  {50ceab1d-a43d-4538-931d-f9ccdf76dabd}, !- Handle
  ASHRAE 189.1-2009 ExtRoof IEAD ClimateZone 1, !- Name
  ,                                       !- Surface Rendering Name
  {217fd3af-cfd9-4d7e-aca8-867cb644d904}, !- Layer 1
  {0fa57f5e-339e-4b61-8c7d-e27eb3837e87}, !- Layer 2
  {cd405f40-43de-449b-b23c-075ebfea1ace}; !- Layer 3

OS:StandardsInformation:Construction,
  {92d06545-6d30-4db5-be54-462abf00c6dc}, !- Handle
  {50ceab1d-a43d-4538-931d-f9ccdf76dabd}, !- Construction Name
  ExteriorRoof,                           !- Intended Surface Type
  IEAD,                                   !- Standards Construction Type
  ,                                       !- Perturbable Layer
  ,                                       !- Perturbable Layer Type
  ,                                       !- Other Perturbable Layer Type
  ASHRAE 189.1-2009;                      !- Construction Standard

OS:Material,
  {217fd3af-cfd9-4d7e-aca8-867cb644d904}, !- Handle
  Roof Membrane,                          !- Name
  VeryRough,                              !- Roughness
  0.0095,                                 !- Thickness {m}
  0.16,                                   !- Conductivity {W/m-K}
  1121.29,                                !- Density {kg/m3}
  1460,                                   !- Specific Heat {J/kg-K}
  0.9,                                    !- Thermal Absorptance
  0.7,                                    !- Solar Absorptance
  0.7;                                    !- Visible Absorptance

OS:StandardsInformation:Material,
  {df971e63-3250-448b-8ade-c20cb1c0e408}, !- Handle
  {217fd3af-cfd9-4d7e-aca8-867cb644d904}; !- Material Name

OS:Material,
  {0fa57f5e-339e-4b61-8c7d-e27eb3837e87}, !- Handle
  Roof Insulation [18],                   !- Name
  MediumRough,                            !- Roughness
  0.1693,                                 !- Thickness {m}
  0.049,                                  !- Conductivity {W/m-K}
  265,                                    !- Density {kg/m3}
  836.800000000001,                       !- Specific Heat {J/kg-K}
  0.9,                                    !- Thermal Absorptance
  0.7,                                    !- Solar Absorptance
  0.7;                                    !- Visible Absorptance

OS:StandardsInformation:Material,
  {2eaabb22-ec1f-45ee-89d5-edea2b16deee}, !- Handle
  {0fa57f5e-339e-4b61-8c7d-e27eb3837e87}; !- Material Name

OS:Material,
  {cd405f40-43de-449b-b23c-075ebfea1ace}, !- Handle
  Metal Decking,                          !- Name
  MediumSmooth,                           !- Roughness
  0.0015,                                 !- Thickness {m}
  45.006,                                 !- Conductivity {W/m-K}
  7680,                                   !- Density {kg/m3}
  418.4,                                  !- Specific Heat {J/kg-K}
  0.9,                                    !- Thermal Absorptance
  0.6,                                    !- Solar Absorptance
  0.6;                                    !- Visible Absorptance

OS:StandardsInformation:Material,
  {c9321a30-eedd-42df-9528-2e727bd0932f}, !- Handle
  {cd405f40-43de-449b-b23c-075ebfea1ace}; !- Material Name

OS:Construction,
  {132f43b4-a5ee-4a3d-a932-796771895459}, !- Handle
  ASHRAE 189.1-2009 ExtRoof IEAD ClimateZone 2-5, !- Name
  ,                                       !- Surface Rendering Name
  {217fd3af-cfd9-4d7e-aca8-867cb644d904}, !- Layer 1
  {5b9e1983-7a8c-4de2-97f6-cbcb37a909a3}, !- Layer 2
  {cd405f40-43de-449b-b23c-075ebfea1ace}; !- Layer 3

OS:StandardsInformation:Construction,
  {f4572c05-46ef-44d8-9d6a-beb442af6195}, !- Handle
  {132f43b4-a5ee-4a3d-a932-796771895459}, !- Construction Name
  ExteriorRoof,                           !- Intended Surface Type
  IEAD,                                   !- Standards Construction Type
  ,                                       !- Perturbable Layer
  ,                                       !- Perturbable Layer Type
  ,                                       !- Other Perturbable Layer Type
  ASHRAE 189.1-2009;                      !- Construction Standard

OS:Material,
  {5b9e1983-7a8c-4de2-97f6-cbcb37a909a3}, !- Handle
  Roof Insulation [21],                   !- Name
  MediumRough,                            !- Roughness
  0.2105,                                 !- Thickness {m}
  0.049,                                  !- Conductivity {W/m-K}
  265,                                    !- Density {kg/m3}
  836.800000000001,                       !- Specific Heat {J/kg-K}
  0.9,                                    !- Thermal Absorptance
  0.7,                                    !- Solar Absorptance
  0.7;                                    !- Visible Absorptance

OS:StandardsInformation:Material,
  {1b1b3624-c716-421e-9beb-fe2c9bfb1815}, !- Handle
  {5b9e1983-7a8c-4de2-97f6-cbcb37a909a3}; !- Material Name

OS:Construction,
  {277658df-e22a-45c9-99b3-bff1c915b224}, !- Handle
  ASHRAE 189.1-2009 ExtRoof IEAD ClimateZone 6, !- Name
  ,                                       !- Surface Rendering Name
  {217fd3af-cfd9-4d7e-aca8-867cb644d904}, !- Layer 1
  {c17620ec-8d13-4755-be1c-5494a10a29c6}, !- Layer 2
  {cd405f40-43de-449b-b23c-075ebfea1ace}; !- Layer 3

OS:StandardsInformation:Construction,
  {cc58f8e8-3e2b-4c9a-b6ca-54d500734941}, !- Handle
  {277658df-e22a-45c9-99b3-bff1c915b224}, !- Construction Name
  ExteriorRoof,                           !- Intended Surface Type
  IEAD,                                   !- Standards Construction Type
  ,                                       !- Perturbable Layer
  ,                                       !- Perturbable Layer Type
  ,                                       !- Other Perturbable Layer Type
  ASHRAE 189.1-2009;                      !- Construction Standard

OS:Material,
  {c17620ec-8d13-4755-be1c-5494a10a29c6}, !- Handle
  Roof Insulation [24],                   !- Name
  MediumRough,                            !- Roughness
  0.260100000000001,                      !- Thickness {m}
  0.049,                                  !- Conductivity {W/m-K}
  265,                                    !- Density {kg/m3}
  836.800000000001,                       !- Specific Heat {J/kg-K}
  0.9,                                    !- Thermal Absorptance
  0.7,                                    !- Solar Absorptance
  0.7;                                    !- Visible Absorptance

OS:StandardsInformation:Material,
  {823358b2-2110-44ca-87a6-365192c18c50}, !- Handle
  {c17620ec-8d13-4755-be1c-5494a10a29c6}; !- Material Name

OS:Construction,
  {313c30af-b283-4fd1-8047-76f875bec37f}, !- Handle
  ASHRAE 189.1-2009 ExtRoof IEAD ClimateZone 7-8, !- Name
  ,                                       !- Surface Rendering Name
  {217fd3af-cfd9-4d7e-aca8-867cb644d904}, !- Layer 1
  {ca93523f-9292-4fbd-bf9c-6b4486f68bea}, !- Layer 2
  {cd405f40-43de-449b-b23c-075ebfea1ace}; !- Layer 3

OS:StandardsInformation:Construction,
  {e79650e2-ce74-4c06-9848-cd5ba676d17d}, !- Handle
  {313c30af-b283-4fd1-8047-76f875bec37f}, !- Construction Name
  ExteriorRoof,                           !- Intended Surface Type
  IEAD,                                   !- Standards Construction Type
  ,                                       !- Perturbable Layer
  ,                                       !- Perturbable Layer Type
  ,                                       !- Other Perturbable Layer Type
  ASHRAE 189.1-2009;                      !- Construction Standard

OS:Material,
  {ca93523f-9292-4fbd-bf9c-6b4486f68bea}, !- Handle
  Roof Insulation [26],                   !- Name
  MediumRough,                            !- Roughness
  0.2941,                                 !- Thickness {m}
  0.049,                                  !- Conductivity {W/m-K}
  265,                                    !- Density {kg/m3}
  836.800000000001,                       !- Specific Heat {J/kg-K}
  0.9,                                    !- Thermal Absorptance
  0.7,                                    !- Solar Absorptance
  0.7;                                    !- Visible Absorptance

OS:StandardsInformation:Material,
  {9b191f7b-4c8c-4dfe-be96-8b4c0c809f7c}, !- Handle
  {ca93523f-9292-4fbd-bf9c-6b4486f68bea}; !- Material Name

OS:Construction,
  {f2d117dc-7c0e-43a4-b09b-bbea8b053ad9}, !- Handle
  ASHRAE 189.1-2009 ExtRoof Metal ClimateZone 1, !- Name
  ,                                       !- Surface Rendering Name
  {8b531a08-baea-452d-9c52-c377c392ddf3}, !- Layer 1
  {f7ffcc50-623b-45f0-ad97-dd1e8d7afbe9}, !- Layer 2
  {cd405f40-43de-449b-b23c-075ebfea1ace}; !- Layer 3

OS:StandardsInformation:Construction,
  {d0e9d374-5e2b-4474-be67-a3be1a41bdd6}, !- Handle
  {f2d117dc-7c0e-43a4-b09b-bbea8b053ad9}, !- Construction Name
  ExteriorRoof,                           !- Intended Surface Type
  Metal,                                  !- Standards Construction Type
  ,                                       !- Perturbable Layer
  ,                                       !- Perturbable Layer Type
  ,                                       !- Other Perturbable Layer Type
  ASHRAE 189.1-2009;                      !- Construction Standard

OS:Material,
  {8b531a08-baea-452d-9c52-c377c392ddf3}, !- Handle
  Metal Roofing,                          !- Name
  MediumSmooth,                           !- Roughness
  0.0015,                                 !- Thickness {m}
  45.006,                                 !- Conductivity {W/m-K}
  7680,                                   !- Density {kg/m3}
  418.4,                                  !- Specific Heat {J/kg-K}
  0.9,                                    !- Thermal Absorptance
  0.6,                                    !- Solar Absorptance
  0.6;                                    !- Visible Absorptance

OS:StandardsInformation:Material,
  {4b4735f4-09fd-42a2-a9b7-542a5e3e0dce}, !- Handle
  {8b531a08-baea-452d-9c52-c377c392ddf3}; !- Material Name

OS:Material,
  {f7ffcc50-623b-45f0-ad97-dd1e8d7afbe9}, !- Handle
  Roof Insulation [19],                   !- Name
  MediumRough,                            !- Roughness
  0.1868,                                 !- Thickness {m}
  0.049,                                  !- Conductivity {W/m-K}
  265,                                    !- Density {kg/m3}
  836.800000000001,                       !- Specific Heat {J/kg-K}
  0.9,                                    !- Thermal Absorptance
  0.7,                                    !- Solar Absorptance
  0.7;                                    !- Visible Absorptance

OS:StandardsInformation:Material,
  {c670687e-40bb-4153-a86d-7daba98668b5}, !- Handle
  {f7ffcc50-623b-45f0-ad97-dd1e8d7afbe9}; !- Material Name

OS:Construction,
  {d21628e9-c3bb-4bac-9e46-302437a5b23c}, !- Handle
  ASHRAE 189.1-2009 ExtRoof Metal ClimateZone 2-5, !- Name
  ,                                       !- Surface Rendering Name
  {8b531a08-baea-452d-9c52-c377c392ddf3}, !- Layer 1
  {c523ccb1-ca7e-4622-87b5-eacbb10cbf43}, !- Layer 2
  {cd405f40-43de-449b-b23c-075ebfea1ace}; !- Layer 3

OS:StandardsInformation:Construction,
  {4e764fdf-2e6e-4410-8194-5a06747224f6}, !- Handle
  {d21628e9-c3bb-4bac-9e46-302437a5b23c}, !- Construction Name
  ExteriorRoof,                           !- Intended Surface Type
  Metal,                                  !- Standards Construction Type
  ,                                       !- Perturbable Layer
  ,                                       !- Perturbable Layer Type
  ,                                       !- Other Perturbable Layer Type
  ASHRAE 189.1-2009;                      !- Construction Standard

OS:Material,
  {c523ccb1-ca7e-4622-87b5-eacbb10cbf43}, !- Handle
  Roof Insulation [22],                   !- Name
  MediumRough,                            !- Roughness
  0.2358,                                 !- Thickness {m}
  0.049,                                  !- Conductivity {W/m-K}
  265,                                    !- Density {kg/m3}
  836.800000000001,                       !- Specific Heat {J/kg-K}
  0.9,                                    !- Thermal Absorptance
  0.7,                                    !- Solar Absorptance
  0.7;                                    !- Visible Absorptance

OS:StandardsInformation:Material,
  {ee720830-d52b-4521-9671-c8d3fac43513}, !- Handle
  {c523ccb1-ca7e-4622-87b5-eacbb10cbf43}; !- Material Name

OS:Construction,
  {0c5a4d90-01e9-4231-a3bb-0b43a5334419}, !- Handle
  ASHRAE 189.1-2009 ExtRoof Metal ClimateZone 6, !- Name
  ,                                       !- Surface Rendering Name
  {8b531a08-baea-452d-9c52-c377c392ddf3}, !- Layer 1
  {b8de4120-b186-4eec-98f1-e13ee6463b87}, !- Layer 2
  {cd405f40-43de-449b-b23c-075ebfea1ace}; !- Layer 3

OS:StandardsInformation:Construction,
  {758bb757-fb90-4f56-90a8-5983c96cfb30}, !- Handle
  {0c5a4d90-01e9-4231-a3bb-0b43a5334419}, !- Construction Name
  ExteriorRoof,                           !- Intended Surface Type
  Metal,                                  !- Standards Construction Type
  ,                                       !- Perturbable Layer
  ,                                       !- Perturbable Layer Type
  ,                                       !- Other Perturbable Layer Type
  ASHRAE 189.1-2009;                      !- Construction Standard

OS:Material,
  {b8de4120-b186-4eec-98f1-e13ee6463b87}, !- Handle
  Roof Insulation [25],                   !- Name
  MediumRough,                            !- Roughness
  0.263,                                  !- Thickness {m}
  0.049,                                  !- Conductivity {W/m-K}
  265,                                    !- Density {kg/m3}
  836.800000000001,                       !- Specific Heat {J/kg-K}
  0.9,                                    !- Thermal Absorptance
  0.7,                                    !- Solar Absorptance
  0.7;                                    !- Visible Absorptance

OS:StandardsInformation:Material,
  {35a9c5c0-b32f-402a-973a-4e5b9d8f62c3}, !- Handle
  {b8de4120-b186-4eec-98f1-e13ee6463b87}; !- Material Name

OS:Construction,
  {80bb29ff-46a8-459a-973f-36dee2a54d05}, !- Handle
  ASHRAE 189.1-2009 ExtRoof Metal ClimateZone 7-8, !- Name
  ,                                       !- Surface Rendering Name
  {8b531a08-baea-452d-9c52-c377c392ddf3}, !- Layer 1
  {2c41f355-38ea-43f7-8fa3-6584edece61a}, !- Layer 2
  {cd405f40-43de-449b-b23c-075ebfea1ace}; !- Layer 3

OS:StandardsInformation:Construction,
  {8bc149f4-bac2-4322-a785-a94532d1d6c5}, !- Handle
  {80bb29ff-46a8-459a-973f-36dee2a54d05}, !- Construction Name
  ExteriorRoof,                           !- Intended Surface Type
  Metal,                                  !- Standards Construction Type
  ,                                       !- Perturbable Layer
  ,                                       !- Perturbable Layer Type
  ,                                       !- Other Perturbable Layer Type
  ASHRAE 189.1-2009;                      !- Construction Standard

OS:Material,
  {2c41f355-38ea-43f7-8fa3-6584edece61a}, !- Handle
  Roof Insulation [27],                   !- Name
  MediumRough,                            !- Roughness
  0.297000000000001,                      !- Thickness {m}
  0.049,                                  !- Conductivity {W/m-K}
  265,                                    !- Density {kg/m3}
  836.800000000001,                       !- Specific Heat {J/kg-K}
  0.9,                                    !- Thermal Absorptance
  0.7,                                    !- Solar Absorptance
  0.7;                                    !- Visible Absorptance

OS:StandardsInformation:Material,
  {9ad68c7a-ab10-4c68-b4a1-bdfcbb201776}, !- Handle
  {2c41f355-38ea-43f7-8fa3-6584edece61a}; !- Material Name

OS:Construction,
  {e8834baa-861e-469d-99d5-8409c617cab3}, !- Handle
  ASHRAE 189.1-2009 ExtWall Mass ClimateZone 1, !- Name
  ,                                       !- Surface Rendering Name
  {d1ca9466-c3f6-4357-acb0-8d322d62b31e}, !- Layer 1
  {d35668a0-5be7-49fd-a1e1-75118fe515b4}, !- Layer 2
  {18b0e03f-2e46-44d3-9c79-0277acf43935}, !- Layer 3
  {4c2f97cb-7422-4043-9241-b74d73429fa0}; !- Layer 4

OS:StandardsInformation:Construction,
  {161839ef-d4f6-45e5-adcd-a4a9071b95e2}, !- Handle
  {e8834baa-861e-469d-99d5-8409c617cab3}, !- Construction Name
  ExteriorWall,                           !- Intended Surface Type
  Mass,                                   !- Standards Construction Type
  ,                                       !- Perturbable Layer
  ,                                       !- Perturbable Layer Type
  ,                                       !- Other Perturbable Layer Type
  ASHRAE 189.1-2009;                      !- Construction Standard

OS:Material,
  {d1ca9466-c3f6-4357-acb0-8d322d62b31e}, !- Handle
  1IN Stucco,                             !- Name
  Smooth,                                 !- Roughness
  0.0253,                                 !- Thickness {m}
  0.691799999999999,                      !- Conductivity {W/m-K}
  1858,                                   !- Density {kg/m3}
  836.999999999999,                       !- Specific Heat {J/kg-K}
  0.9,                                    !- Thermal Absorptance
  0.92,                                   !- Solar Absorptance
  0.92;                                   !- Visible Absorptance

OS:StandardsInformation:Material,
  {6025f571-75ee-46c4-a467-67b467375349}, !- Handle
  {d1ca9466-c3f6-4357-acb0-8d322d62b31e}; !- Material Name

OS:Material,
  {d35668a0-5be7-49fd-a1e1-75118fe515b4}, !- Handle
  8IN Concrete HW,                        !- Name
  MediumRough,                            !- Roughness
  0.2033,                                 !- Thickness {m}
  1.72959999999999,                       !- Conductivity {W/m-K}
  2242.99999999999,                       !- Density {kg/m3}
  836.999999999999,                       !- Specific Heat {J/kg-K}
  0.9,                                    !- Thermal Absorptance
  0.65,                                   !- Solar Absorptance
  0.65;                                   !- Visible Absorptance

OS:StandardsInformation:Material,
  {8cdc6d08-c227-4491-abe6-b41606e88861}, !- Handle
  {d35668a0-5be7-49fd-a1e1-75118fe515b4}; !- Material Name

OS:Material,
  {18b0e03f-2e46-44d3-9c79-0277acf43935}, !- Handle
  Wall Insulation [31],                   !- Name
  MediumRough,                            !- Roughness
  0.0337000000000001,                     !- Thickness {m}
  0.0432,                                 !- Conductivity {W/m-K}
  91,                                     !- Density {kg/m3}
  836.999999999999,                       !- Specific Heat {J/kg-K}
  0.9,                                    !- Thermal Absorptance
  0.5,                                    !- Solar Absorptance
  0.5;                                    !- Visible Absorptance

OS:StandardsInformation:Material,
  {c63aabd8-dcaa-499b-b535-07007b9c47ba}, !- Handle
  {18b0e03f-2e46-44d3-9c79-0277acf43935}; !- Material Name

OS:Construction,
  {2020ba55-a0e5-4e23-a1cd-895efbb6be59}, !- Handle
  ASHRAE 189.1-2009 ExtWall Mass ClimateZone 2, !- Name
  ,                                       !- Surface Rendering Name
  {d1ca9466-c3f6-4357-acb0-8d322d62b31e}, !- Layer 1
  {d35668a0-5be7-49fd-a1e1-75118fe515b4}, !- Layer 2
  {30e5ed84-0152-4c2c-9144-26577743d0f1}, !- Layer 3
  {4c2f97cb-7422-4043-9241-b74d73429fa0}; !- Layer 4

OS:StandardsInformation:Construction,
  {d99c2932-3eae-4292-9327-cd2b63fdc72b}, !- Handle
  {2020ba55-a0e5-4e23-a1cd-895efbb6be59}, !- Construction Name
  ExteriorWall,                           !- Intended Surface Type
  Mass,                                   !- Standards Construction Type
  ,                                       !- Perturbable Layer
  ,                                       !- Perturbable Layer Type
  ,                                       !- Other Perturbable Layer Type
  ASHRAE 189.1-2009;                      !- Construction Standard

OS:Material,
  {30e5ed84-0152-4c2c-9144-26577743d0f1}, !- Handle
  Wall Insulation [35],                   !- Name
  MediumRough,                            !- Roughness
  0.0452,                                 !- Thickness {m}
  0.0432,                                 !- Conductivity {W/m-K}
  91,                                     !- Density {kg/m3}
  836.999999999999,                       !- Specific Heat {J/kg-K}
  0.9,                                    !- Thermal Absorptance
  0.5,                                    !- Solar Absorptance
  0.5;                                    !- Visible Absorptance

OS:StandardsInformation:Material,
  {f825bb45-732d-430e-84bb-c51c8c7a90af}, !- Handle
  {30e5ed84-0152-4c2c-9144-26577743d0f1}; !- Material Name

OS:Construction,
  {da210fdd-d333-4f5f-843a-92b56ef82db8}, !- Handle
  ASHRAE 189.1-2009 ExtWall Mass ClimateZone 3, !- Name
  ,                                       !- Surface Rendering Name
  {d1ca9466-c3f6-4357-acb0-8d322d62b31e}, !- Layer 1
  {d35668a0-5be7-49fd-a1e1-75118fe515b4}, !- Layer 2
  {34a6765e-57be-4f68-9cab-02a85645f810}, !- Layer 3
  {4c2f97cb-7422-4043-9241-b74d73429fa0}; !- Layer 4

OS:StandardsInformation:Construction,
  {1cde06a7-c0ac-407f-9a15-1212dbdf2852}, !- Handle
  {da210fdd-d333-4f5f-843a-92b56ef82db8}, !- Construction Name
  ExteriorWall,                           !- Intended Surface Type
  Mass,                                   !- Standards Construction Type
  ,                                       !- Perturbable Layer
  ,                                       !- Perturbable Layer Type
  ,                                       !- Other Perturbable Layer Type
  ASHRAE 189.1-2009;                      !- Construction Standard

OS:Material,
  {34a6765e-57be-4f68-9cab-02a85645f810}, !- Handle
  Wall Insulation [36],                   !- Name
  MediumRough,                            !- Roughness
  0.0565999999999999,                     !- Thickness {m}
  0.0432,                                 !- Conductivity {W/m-K}
  91,                                     !- Density {kg/m3}
  836.999999999999,                       !- Specific Heat {J/kg-K}
  0.9,                                    !- Thermal Absorptance
  0.5,                                    !- Solar Absorptance
  0.5;                                    !- Visible Absorptance

OS:StandardsInformation:Material,
  {746073a1-e405-4524-8617-346195b2aabd}, !- Handle
  {34a6765e-57be-4f68-9cab-02a85645f810}; !- Material Name

OS:Construction,
  {49c8c6c2-1504-4afa-a693-2ad6a359aa95}, !- Handle
  ASHRAE 189.1-2009 ExtWall Mass ClimateZone 4, !- Name
  ,                                       !- Surface Rendering Name
  {d1ca9466-c3f6-4357-acb0-8d322d62b31e}, !- Layer 1
  {d35668a0-5be7-49fd-a1e1-75118fe515b4}, !- Layer 2
  {9babc1fa-3da6-4208-8286-3b606601bf98}, !- Layer 3
  {4c2f97cb-7422-4043-9241-b74d73429fa0}; !- Layer 4

OS:StandardsInformation:Construction,
  {6d15be58-b8b0-4a94-b2f8-59e399d19c6b}, !- Handle
  {49c8c6c2-1504-4afa-a693-2ad6a359aa95}, !- Construction Name
  ExteriorWall,                           !- Intended Surface Type
  Mass,                                   !- Standards Construction Type
  ,                                       !- Perturbable Layer
  ,                                       !- Perturbable Layer Type
  ,                                       !- Other Perturbable Layer Type
  ASHRAE 189.1-2009;                      !- Construction Standard

OS:Material,
  {9babc1fa-3da6-4208-8286-3b606601bf98}, !- Handle
  Wall Insulation [37],                   !- Name
  MediumRough,                            !- Roughness
  0.0680999999999999,                     !- Thickness {m}
  0.0432,                                 !- Conductivity {W/m-K}
  91,                                     !- Density {kg/m3}
  836.999999999999,                       !- Specific Heat {J/kg-K}
  0.9,                                    !- Thermal Absorptance
  0.5,                                    !- Solar Absorptance
  0.5;                                    !- Visible Absorptance

OS:StandardsInformation:Material,
  {db55caff-f60a-42c4-bd50-2367a8916b63}, !- Handle
  {9babc1fa-3da6-4208-8286-3b606601bf98}; !- Material Name

OS:Construction,
  {b91493f3-554a-41aa-9bc4-ae39e6ad75a1}, !- Handle
  ASHRAE 189.1-2009 ExtWall Mass ClimateZone 5, !- Name
  ,                                       !- Surface Rendering Name
  {d1ca9466-c3f6-4357-acb0-8d322d62b31e}, !- Layer 1
  {d35668a0-5be7-49fd-a1e1-75118fe515b4}, !- Layer 2
  {b15c49bd-d0d7-4441-872c-e4706119d9f9}, !- Layer 3
  {4c2f97cb-7422-4043-9241-b74d73429fa0}; !- Layer 4

OS:StandardsInformation:Construction,
  {e32d00b0-7ec2-4723-a371-906aaa393b33}, !- Handle
  {b91493f3-554a-41aa-9bc4-ae39e6ad75a1}, !- Construction Name
  ExteriorWall,                           !- Intended Surface Type
  Mass,                                   !- Standards Construction Type
  ,                                       !- Perturbable Layer
  ,                                       !- Perturbable Layer Type
  ,                                       !- Other Perturbable Layer Type
  ASHRAE 189.1-2009;                      !- Construction Standard

OS:Material,
  {b15c49bd-d0d7-4441-872c-e4706119d9f9}, !- Handle
  Wall Insulation [40],                   !- Name
  MediumRough,                            !- Roughness
  0.0793999999999999,                     !- Thickness {m}
  0.0432,                                 !- Conductivity {W/m-K}
  91,                                     !- Density {kg/m3}
  836.999999999999,                       !- Specific Heat {J/kg-K}
  0.9,                                    !- Thermal Absorptance
  0.5,                                    !- Solar Absorptance
  0.5;                                    !- Visible Absorptance

OS:StandardsInformation:Material,
  {2dd49954-1a36-4902-aa27-0d66569fdd56}, !- Handle
  {b15c49bd-d0d7-4441-872c-e4706119d9f9}; !- Material Name

OS:Construction,
  {be0fc02f-7169-457e-886a-5cfe2b7e4300}, !- Handle
  ASHRAE 189.1-2009 ExtWall Mass ClimateZone 6, !- Name
  ,                                       !- Surface Rendering Name
  {d1ca9466-c3f6-4357-acb0-8d322d62b31e}, !- Layer 1
  {d35668a0-5be7-49fd-a1e1-75118fe515b4}, !- Layer 2
  {9952f1cb-f469-4c9c-93d4-3032320e8899}, !- Layer 3
  {4c2f97cb-7422-4043-9241-b74d73429fa0}; !- Layer 4

OS:StandardsInformation:Construction,
  {211a0006-1a6d-4c22-a1d7-d535ce5b266b}, !- Handle
  {be0fc02f-7169-457e-886a-5cfe2b7e4300}, !- Construction Name
  ExteriorWall,                           !- Intended Surface Type
  Mass,                                   !- Standards Construction Type
  ,                                       !- Perturbable Layer
  ,                                       !- Perturbable Layer Type
  ,                                       !- Other Perturbable Layer Type
  ASHRAE 189.1-2009;                      !- Construction Standard

OS:Material,
  {9952f1cb-f469-4c9c-93d4-3032320e8899}, !- Handle
  Wall Insulation [42],                   !- Name
  MediumRough,                            !- Roughness
  0.0913999999999999,                     !- Thickness {m}
  0.0432,                                 !- Conductivity {W/m-K}
  91,                                     !- Density {kg/m3}
  836.999999999999,                       !- Specific Heat {J/kg-K}