
OS:Version,
  {3c3bf687-c88e-4689-ae87-892c0627ca0f}, !- Handle
  1.3.3;                                  !- Version Identifier

OS:Construction,
  {b5f6fae7-439a-4336-8a82-cd909ef01057}, !- Handle
  ASHRAE 189.1-2009 AtticFloor ClimateZone 1-8, !- Name
  ,                                       !- Surface Rendering Name
  {95dbd9c0-3360-48f2-9467-0858c072ae78}, !- Layer 1
  {5d0688d7-44e6-4877-a250-7894e86c3215}, !- Layer 2
  {95dbd9c0-3360-48f2-9467-0858c072ae78}; !- Layer 3

OS:StandardsInformation:Construction,
  {6b638012-19ae-4827-8a18-9c80c0f24371}, !- Handle
  {b5f6fae7-439a-4336-8a82-cd909ef01057}, !- Construction Name
  AtticFloor,                             !- Intended Surface Type
  WoodFramed;                             !- Standards Construction Type

OS:Material,
  {95dbd9c0-3360-48f2-9467-0858c072ae78}, !- Handle
  1/2IN Gypsum,                           !- Name
  Smooth,                                 !- Roughness
  0.0127,                                 !- Thickness {m}
  0.16,                                   !- Conductivity {W/m-K}
  784.9,                                  !- Density {kg/m3}
  830.000000000001,                       !- Specific Heat {J/kg-K}
  0.9,                                    !- Thermal Absorptance
  0.4,                                    !- Solar Absorptance
  0.4;                                    !- Visible Absorptance

OS:Material,
  {5d0688d7-44e6-4877-a250-7894e86c3215}, !- Handle
  AtticFloor Insulation,                  !- Name
  MediumRough,                            !- Roughness
  0.2379,                                 !- Thickness {m}
  0.049,                                  !- Conductivity {W/m-K}
  265,                                    !- Density {kg/m3}
  836.800000000001,                       !- Specific Heat {J/kg-K}
  0.9,                                    !- Thermal Absorptance
  0.7,                                    !- Solar Absorptance
  0.7;                                    !- Visible Absorptance

OS:Construction,
  {e805e0f5-31ea-44d6-8cc4-934c2ed174cb}, !- Handle
  ASHRAE 189.1-2009 ExtRoof IEAD ClimateZone 1, !- Name
  ,                                       !- Surface Rendering Name
  {f343ad02-b7a2-43da-be33-c26c825add51}, !- Layer 1
  {4f86fb04-11d6-492d-9974-0eaed4ffacbb}, !- Layer 2
  {fa229097-049f-4489-8610-d973c83facbc}; !- Layer 3

OS:StandardsInformation:Construction,
  {284c2d87-09f3-45b8-8e21-1d76fe900372}, !- Handle
  {e805e0f5-31ea-44d6-8cc4-934c2ed174cb}, !- Construction Name
  ExteriorRoof,                           !- Intended Surface Type
  IEAD;                                   !- Standards Construction Type

OS:Material,
  {f343ad02-b7a2-43da-be33-c26c825add51}, !- Handle
  Roof Membrane,                          !- Name
  VeryRough,                              !- Roughness
  0.0095,                                 !- Thickness {m}
  0.16,                                   !- Conductivity {W/m-K}
  1121.29,                                !- Density {kg/m3}
  1460,                                   !- Specific Heat {J/kg-K}
  0.9,                                    !- Thermal Absorptance
  0.7,                                    !- Solar Absorptance
  0.7;                                    !- Visible Absorptance

OS:Material,
  {4f86fb04-11d6-492d-9974-0eaed4ffacbb}, !- Handle
  Roof Insulation [18],                   !- Name
  MediumRough,                            !- Roughness
  0.1693,                                 !- Thickness {m}
  0.049,                                  !- Conductivity {W/m-K}
  265,                                    !- Density {kg/m3}
  836.800000000001,                       !- Specific Heat {J/kg-K}
  0.9,                                    !- Thermal Absorptance
  0.7,                                    !- Solar Absorptance
  0.7;                                    !- Visible Absorptance

OS:Material,
  {fa229097-049f-4489-8610-d973c83facbc}, !- Handle
  Metal Decking,                          !- Name
  MediumSmooth,                           !- Roughness
  0.0015,                                 !- Thickness {m}
  45.006,                                 !- Conductivity {W/m-K}
  7680,                                   !- Density {kg/m3}
  418.4,                                  !- Specific Heat {J/kg-K}
  0.9,                                    !- Thermal Absorptance
  0.6,                                    !- Solar Absorptance
  0.6;                                    !- Visible Absorptance

OS:Construction,
  {2ae01a67-7c42-49b3-80d3-b5388870fbc9}, !- Handle
  ASHRAE 189.1-2009 ExtRoof IEAD ClimateZone 2-5, !- Name
  ,                                       !- Surface Rendering Name
  {f343ad02-b7a2-43da-be33-c26c825add51}, !- Layer 1
  {16975255-80b1-42e9-ab4c-37ee9ec40f3d}, !- Layer 2
  {fa229097-049f-4489-8610-d973c83facbc}; !- Layer 3

OS:StandardsInformation:Construction,
  {a0acde2d-b20b-4255-98e4-63d7d2cfb49a}, !- Handle
  {2ae01a67-7c42-49b3-80d3-b5388870fbc9}, !- Construction Name
  ExteriorRoof,                           !- Intended Surface Type
  IEAD;                                   !- Standards Construction Type

OS:Material,
  {16975255-80b1-42e9-ab4c-37ee9ec40f3d}, !- Handle
  Roof Insulation [21],                   !- Name
  MediumRough,                            !- Roughness
  0.2105,                                 !- Thickness {m}
  0.049,                                  !- Conductivity {W/m-K}
  265,                                    !- Density {kg/m3}
  836.800000000001,                       !- Specific Heat {J/kg-K}
  0.9,                                    !- Thermal Absorptance
  0.7,                                    !- Solar Absorptance
  0.7;                                    !- Visible Absorptance

OS:Construction,
  {f40352f6-8dfc-4e26-a1fb-a8e1919248da}, !- Handle
  ASHRAE 189.1-2009 ExtRoof IEAD ClimateZone 6, !- Name
  ,                                       !- Surface Rendering Name
  {f343ad02-b7a2-43da-be33-c26c825add51}, !- Layer 1
  {304b40f9-0e9d-408b-b7b6-ec2eab393457}, !- Layer 2
  {fa229097-049f-4489-8610-d973c83facbc}; !- Layer 3

OS:StandardsInformation:Construction,
  {ae599c91-2f0b-4cad-a5e9-6fd09dd1d5f0}, !- Handle
  {f40352f6-8dfc-4e26-a1fb-a8e1919248da}, !- Construction Name
  ExteriorRoof,                           !- Intended Surface Type
  IEAD;                                   !- Standards Construction Type

OS:Material,
  {304b40f9-0e9d-408b-b7b6-ec2eab393457}, !- Handle
  Roof Insulation [24],                   !- Name
  MediumRough,                            !- Roughness
  0.260100000000001,                      !- Thickness {m}
  0.049,                                  !- Conductivity {W/m-K}
  265,                                    !- Density {kg/m3}
  836.800000000001,                       !- Specific Heat {J/kg-K}
  0.9,                                    !- Thermal Absorptance
  0.7,                                    !- Solar Absorptance
  0.7;                                    !- Visible Absorptance

OS:Construction,
  {bd6d87ba-d15c-4112-8561-759ddcf2a238}, !- Handle
  ASHRAE 189.1-2009 ExtRoof IEAD ClimateZone 7-8, !- Name
  ,                                       !- Surface Rendering Name
  {f343ad02-b7a2-43da-be33-c26c825add51}, !- Layer 1
  {c2c1f368-ad95-40f6-82a1-cd022830ea7c}, !- Layer 2
  {fa229097-049f-4489-8610-d973c83facbc}; !- Layer 3

OS:StandardsInformation:Construction,
  {4a85d8e0-1d94-4e97-95ae-bac2efb93587}, !- Handle
  {bd6d87ba-d15c-4112-8561-759ddcf2a238}, !- Construction Name
  ExteriorRoof,                           !- Intended Surface Type
  IEAD;                                   !- Standards Construction Type

OS:Material,
  {c2c1f368-ad95-40f6-82a1-cd022830ea7c}, !- Handle
  Roof Insulation [26],                   !- Name
  MediumRough,                            !- Roughness
  0.2941,                                 !- Thickness {m}
  0.049,                                  !- Conductivity {W/m-K}
  265,                                    !- Density {kg/m3}
  836.800000000001,                       !- Specific Heat {J/kg-K}
  0.9,                                    !- Thermal Absorptance
  0.7,                                    !- Solar Absorptance
  0.7;                                    !- Visible Absorptance

OS:Construction,
  {c27d7bf4-154b-47a9-8cb5-76a54b361ed3}, !- Handle
  ASHRAE 189.1-2009 ExtRoof Metal ClimateZone 1, !- Name
  ,                                       !- Surface Rendering Name
  {f0f8ec0a-5043-41bd-822d-38986acb8760}, !- Layer 1
  {39c10a2b-b3e2-4eca-8395-b71a5a524a8e}, !- Layer 2
  {fa229097-049f-4489-8610-d973c83facbc}; !- Layer 3

OS:StandardsInformation:Construction,
  {290c8197-577b-4d8d-826d-441c25352266}, !- Handle
  {c27d7bf4-154b-47a9-8cb5-76a54b361ed3}, !- Construction Name
  ExteriorRoof,                           !- Intended Surface Type
  Metal;                                  !- Standards Construction Type

OS:Material,
  {f0f8ec0a-5043-41bd-822d-38986acb8760}, !- Handle
  Metal Roofing,                          !- Name
  MediumSmooth,                           !- Roughness
  0.0015,                                 !- Thickness {m}
  45.006,                                 !- Conductivity {W/m-K}
  7680,                                   !- Density {kg/m3}
  418.4,                                  !- Specific Heat {J/kg-K}
  0.9,                                    !- Thermal Absorptance
  0.6,                                    !- Solar Absorptance
  0.6;                                    !- Visible Absorptance

OS:Material,
  {39c10a2b-b3e2-4eca-8395-b71a5a524a8e}, !- Handle
  Roof Insulation [19],                   !- Name
  MediumRough,                            !- Roughness
  0.1868,                                 !- Thickness {m}
  0.049,                                  !- Conductivity {W/m-K}
  265,                                    !- Density {kg/m3}
  836.800000000001,                       !- Specific Heat {J/kg-K}
  0.9,                                    !- Thermal Absorptance
  0.7,                                    !- Solar Absorptance
  0.7;                                    !- Visible Absorptance

OS:Construction,
  {83eea1bf-50cf-4628-a7a7-998cfc9a8f33}, !- Handle
  ASHRAE 189.1-2009 ExtRoof Metal ClimateZone 2-5, !- Name
  ,                                       !- Surface Rendering Name
  {f0f8ec0a-5043-41bd-822d-38986acb8760}, !- Layer 1
  {3c1c423f-6e23-4bd9-a046-a14e33b72d5b}, !- Layer 2
  {fa229097-049f-4489-8610-d973c83facbc}; !- Layer 3

OS:StandardsInformation:Construction,
  {89852081-ca96-49e0-8d11-aae0f9b6a79f}, !- Handle
  {83eea1bf-50cf-4628-a7a7-998cfc9a8f33}, !- Construction Name
  ExteriorRoof,                           !- Intended Surface Type
  Metal;                                  !- Standards Construction Type

OS:Material,
  {3c1c423f-6e23-4bd9-a046-a14e33b72d5b}, !- Handle
  Roof Insulation [22],                   !- Name
  MediumRough,                            !- Roughness
  0.2358,                                 !- Thickness {m}
  0.049,                                  !- Conductivity {W/m-K}
  265,                                    !- Density {kg/m3}
  836.800000000001,                       !- Specific Heat {J/kg-K}
  0.9,                                    !- Thermal Absorptance
  0.7,                                    !- Solar Absorptance
  0.7;                                    !- Visible Absorptance

OS:Construction,
  {5bca4b29-d1e3-4ccb-abed-af68635debda}, !- Handle
  ASHRAE 189.1-2009 ExtRoof Metal ClimateZone 6, !- Name
  ,                                       !- Surface Rendering Name
  {f0f8ec0a-5043-41bd-822d-38986acb8760}, !- Layer 1
  {9597e9d0-3754-45a5-becc-77bbe02dd515}, !- Layer 2
  {fa229097-049f-4489-8610-d973c83facbc}; !- Layer 3

OS:StandardsInformation:Construction,
  {d1e0e29d-f307-465e-8c65-91793dbe1c49}, !- Handle
  {5bca4b29-d1e3-4ccb-abed-af68635debda}, !- Construction Name
  ExteriorRoof,                           !- Intended Surface Type
  Metal;                                  !- Standards Construction Type

OS:Material,
  {9597e9d0-3754-45a5-becc-77bbe02dd515}, !- Handle
  Roof Insulation [25],                   !- Name
  MediumRough,                            !- Roughness
  0.263,                                  !- Thickness {m}
  0.049,                                  !- Conductivity {W/m-K}
  265,                                    !- Density {kg/m3}
  836.800000000001,                       !- Specific Heat {J/kg-K}
  0.9,                                    !- Thermal Absorptance
  0.7,                                    !- Solar Absorptance
  0.7;                                    !- Visible Absorptance

OS:Construction,
  {2a0f5d96-c6a1-437e-bdf8-6d979054cff2}, !- Handle
  ASHRAE 189.1-2009 ExtRoof Metal ClimateZone 7-8, !- Name
  ,                                       !- Surface Rendering Name
  {f0f8ec0a-5043-41bd-822d-38986acb8760}, !- Layer 1
  {903bbf7a-26b5-4262-922e-3006a04fa37a}, !- Layer 2
  {fa229097-049f-4489-8610-d973c83facbc}; !- Layer 3

OS:StandardsInformation:Construction,
  {0395c80d-7f3c-4ab3-9842-3c16331e2fb2}, !- Handle
  {2a0f5d96-c6a1-437e-bdf8-6d979054cff2}, !- Construction Name
  ExteriorRoof,                           !- Intended Surface Type
  Metal;                                  !- Standards Construction Type

OS:Material,
  {903bbf7a-26b5-4262-922e-3006a04fa37a}, !- Handle
  Roof Insulation [27],                   !- Name
  MediumRough,                            !- Roughness
  0.297000000000001,                      !- Thickness {m}
  0.049,                                  !- Conductivity {W/m-K}
  265,                                    !- Density {kg/m3}
  836.800000000001,                       !- Specific Heat {J/kg-K}
  0.9,                                    !- Thermal Absorptance
  0.7,                                    !- Solar Absorptance
  0.7;                                    !- Visible Absorptance

OS:Construction,
  {be9201be-2ee0-4a1d-8ec1-c64630a18290}, !- Handle
  ASHRAE 189.1-2009 ExtWall Mass ClimateZone 1, !- Name
  ,                                       !- Surface Rendering Name
  {00a7d17e-8b6c-485d-9a31-8c867dcf0b72}, !- Layer 1
  {f36c8cb8-8d9a-4fb7-ae1e-4bab88b9c1a4}, !- Layer 2
  {770d8a32-4796-4895-bb85-76f87a3cebd2}, !- Layer 3
  {95dbd9c0-3360-48f2-9467-0858c072ae78}; !- Layer 4

OS:StandardsInformation:Construction,
  {cb008992-c4fc-4e03-b9d8-948dc299072c}, !- Handle
  {be9201be-2ee0-4a1d-8ec1-c64630a18290}, !- Construction Name
  ExteriorWall,                           !- Intended Surface Type
  Mass;                                   !- Standards Construction Type

OS:Material,
  {00a7d17e-8b6c-485d-9a31-8c867dcf0b72}, !- Handle
  1IN Stucco,                             !- Name
  Smooth,                                 !- Roughness
  0.0253,                                 !- Thickness {m}
  0.691799999999999,                      !- Conductivity {W/m-K}
  1858,                                   !- Density {kg/m3}
  836.999999999999,                       !- Specific Heat {J/kg-K}
  0.9,                                    !- Thermal Absorptance
  0.92,                                   !- Solar Absorptance
  0.92;                                   !- Visible Absorptance

OS:Material,
  {f36c8cb8-8d9a-4fb7-ae1e-4bab88b9c1a4}, !- Handle
  8IN Concrete HW,                        !- Name
  MediumRough,                            !- Roughness
  0.2033,                                 !- Thickness {m}
  1.72959999999999,                       !- Conductivity {W/m-K}
  2242.99999999999,                       !- Density {kg/m3}
  836.999999999999,                       !- Specific Heat {J/kg-K}
  0.9,                                    !- Thermal Absorptance
  0.65,                                   !- Solar Absorptance
  0.65;                                   !- Visible Absorptance

OS:Material,
  {770d8a32-4796-4895-bb85-76f87a3cebd2}, !- Handle
  Wall Insulation [31],                   !- Name
  MediumRough,                            !- Roughness
  0.0337000000000001,                     !- Thickness {m}
  0.0432,                                 !- Conductivity {W/m-K}
  91,                                     !- Density {kg/m3}
  836.999999999999,                       !- Specific Heat {J/kg-K}
  0.9,                                    !- Thermal Absorptance
  0.5,                                    !- Solar Absorptance
  0.5;                                    !- Visible Absorptance

OS:Construction,
  {4ab3386c-f045-4923-8c85-700f346dfc52}, !- Handle
  ASHRAE 189.1-2009 ExtWall Mass ClimateZone 2, !- Name
  ,                                       !- Surface Rendering Name
  {00a7d17e-8b6c-485d-9a31-8c867dcf0b72}, !- Layer 1
  {f36c8cb8-8d9a-4fb7-ae1e-4bab88b9c1a4}, !- Layer 2
  {112df4b6-fd4f-47bd-83e1-f6931f15b48e}, !- Layer 3
  {95dbd9c0-3360-48f2-9467-0858c072ae78}; !- Layer 4

OS:StandardsInformation:Construction,
  {20015884-78b7-44f2-bb92-238d6e1829b8}, !- Handle
  {4ab3386c-f045-4923-8c85-700f346dfc52}, !- Construction Name
  ExteriorWall,                           !- Intended Surface Type
  Mass;                                   !- Standards Construction Type

OS:Material,
  {112df4b6-fd4f-47bd-83e1-f6931f15b48e}, !- Handle
  Wall Insulation [35],                   !- Name
  MediumRough,                            !- Roughness
  0.0452,                                 !- Thickness {m}
  0.0432,                                 !- Conductivity {W/m-K}
  91,                                     !- Density {kg/m3}
  836.999999999999,                       !- Specific Heat {J/kg-K}
  0.9,                                    !- Thermal Absorptance
  0.5,                                    !- Solar Absorptance
  0.5;                                    !- Visible Absorptance

OS:Construction,
  {6ea2cecc-d2c7-4936-bb0a-818bb13e6c11}, !- Handle
  ASHRAE 189.1-2009 ExtWall Mass ClimateZone 3, !- Name
  ,                                       !- Surface Rendering Name
  {00a7d17e-8b6c-485d-9a31-8c867dcf0b72}, !- Layer 1
  {f36c8cb8-8d9a-4fb7-ae1e-4bab88b9c1a4}, !- Layer 2
  {e9947e46-1795-42b2-8e32-06a949e7a434}, !- Layer 3
  {95dbd9c0-3360-48f2-9467-0858c072ae78}; !- Layer 4

OS:StandardsInformation:Construction,
  {6d001c93-78b2-4ba9-8114-92ddc418dccc}, !- Handle
  {6ea2cecc-d2c7-4936-bb0a-818bb13e6c11}, !- Construction Name
  ExteriorWall,                           !- Intended Surface Type
  Mass;                                   !- Standards Construction Type

OS:Material,
  {e9947e46-1795-42b2-8e32-06a949e7a434}, !- Handle
  Wall Insulation [36],                   !- Name
  MediumRough,                            !- Roughness
  0.0565999999999999,                     !- Thickness {m}
  0.0432,                                 !- Conductivity {W/m-K}
  91,                                     !- Density {kg/m3}
  836.999999999999,                       !- Specific Heat {J/kg-K}
  0.9,                                    !- Thermal Absorptance
  0.5,                                    !- Solar Absorptance
  0.5;                                    !- Visible Absorptance

OS:Construction,
  {a28626b8-c999-45a1-b51a-281c2bb6e59c}, !- Handle
  ASHRAE 189.1-2009 ExtWall Mass ClimateZone 4, !- Name
  ,                                       !- Surface Rendering Name
  {00a7d17e-8b6c-485d-9a31-8c867dcf0b72}, !- Layer 1
  {f36c8cb8-8d9a-4fb7-ae1e-4bab88b9c1a4}, !- Layer 2
  {a337cd6f-2b9a-469a-999d-35dbb966a5b2}, !- Layer 3
  {95dbd9c0-3360-48f2-9467-0858c072ae78}; !- Layer 4

OS:StandardsInformation:Construction,
  {48361a4a-97e8-4273-bb1d-aa4711b22eb3}, !- Handle
  {a28626b8-c999-45a1-b51a-281c2bb6e59c}, !- Construction Name
  ExteriorWall,                           !- Intended Surface Type
  Mass;                                   !- Standards Construction Type

OS:Material,
  {a337cd6f-2b9a-469a-999d-35dbb966a5b2}, !- Handle
  Wall Insulation [37],                   !- Name
  MediumRough,                            !- Roughness
  0.0680999999999999,                     !- Thickness {m}
  0.0432,                                 !- Conductivity {W/m-K}
  91,                                     !- Density {kg/m3}
  836.999999999999,                       !- Specific Heat {J/kg-K}
  0.9,                                    !- Thermal Absorptance
  0.5,                                    !- Solar Absorptance
  0.5;                                    !- Visible Absorptance

OS:Construction,
  {94f03ca0-9153-47f2-89dc-1b2369ac9fba}, !- Handle
  ASHRAE 189.1-2009 ExtWall Mass ClimateZone 5, !- Name
  ,                                       !- Surface Rendering Name
  {00a7d17e-8b6c-485d-9a31-8c867dcf0b72}, !- Layer 1
  {f36c8cb8-8d9a-4fb7-ae1e-4bab88b9c1a4}, !- Layer 2
  {e85574e5-d2eb-4071-9a61-796729af6188}, !- Layer 3
  {95dbd9c0-3360-48f2-9467-0858c072ae78}; !- Layer 4

OS:StandardsInformation:Construction,
  {bd1efe1e-7ba8-405d-8c02-71e2a757eeee}, !- Handle
  {94f03ca0-9153-47f2-89dc-1b2369ac9fba}, !- Construction Name
  ExteriorWall,                           !- Intended Surface Type
  Mass;                                   !- Standards Construction Type

OS:Material,
  {e85574e5-d2eb-4071-9a61-796729af6188}, !- Handle
  Wall Insulation [40],                   !- Name
  MediumRough,                            !- Roughness
  0.0793999999999999,                     !- Thickness {m}
  0.0432,                                 !- Conductivity {W/m-K}
  91,                                     !- Density {kg/m3}
  836.999999999999,                       !- Specific Heat {J/kg-K}
  0.9,                                    !- Thermal Absorptance
  0.5,                                    !- Solar Absorptance
  0.5;                                    !- Visible Absorptance

OS:Construction,
  {a917f4bf-038f-4b42-9fa9-3d9aa494ee02}, !- Handle
  ASHRAE 189.1-2009 ExtWall Mass ClimateZone 6, !- Name
  ,                                       !- Surface Rendering Name
  {00a7d17e-8b6c-485d-9a31-8c867dcf0b72}, !- Layer 1
  {f36c8cb8-8d9a-4fb7-ae1e-4bab88b9c1a4}, !- Layer 2
  {f06fabe2-5297-4f6d-ac92-83c2a3166afa}, !- Layer 3
  {95dbd9c0-3360-48f2-9467-0858c072ae78}; !- Layer 4

OS:StandardsInformation:Construction,
  {d516e2be-a76f-47a5-8f0a-dcfac5810e04}, !- Handle
  {a917f4bf-038f-4b42-9fa9-3d9aa494ee02}, !- Construction Name
  ExteriorWall,                           !- Intended Surface Type
  Mass;                                   !- Standards Construction Type

OS:Material,
  {f06fabe2-5297-4f6d-ac92-83c2a3166afa}, !- Handle
  Wall Insulation [42],                   !- Name
  MediumRough,                            !- Roughness
  0.0913999999999999,                     !- Thickness {m}
  0.0432,                                 !- Conductivity {W/m-K}
  91,                                     !- Density {kg/m3}
  836.999999999999,                       !- Specific Heat {J/kg-K}
  0.9,                                    !- Thermal Absorptance
  0.5,                                    !- Solar Absorptance
  0.5;                                    !- Visible Absorptance

OS:Construction,
  {1997f920-a8d6-49bf-9a3f-1929a085152b}, !- Handle
  ASHRAE 189.1-2009 ExtWall Mass ClimateZone 7-8, !- Name
  ,                                       !- Surface Rendering Name
  {00a7d17e-8b6c-485d-9a31-8c867dcf0b72}, !- Layer 1
  {f36c8cb8-8d9a-4fb7-ae1e-4bab88b9c1a4}, !- Layer 2
  {0594f59a-ec6c-4a25-b084-308b9bed9e0f}, !- Layer 3
  {95dbd9c0-3360-48f2-9467-0858c072ae78}; !- Layer 4

OS:StandardsInformation:Construction,
  {6c4969a4-4bc9-4925-8b5d-967ea8507662}, !- Handle
  {1997f920-a8d6-49bf-9a3f-1929a085152b}, !- Construction Name
  ExteriorWall,                           !- Intended Surface Type
  Mass;                                   !- Standards Construction Type

OS:Material,
  {0594f59a-ec6c-4a25-b084-308b9bed9e0f}, !- Handle
  Wall Insulation [44],                   !- Name
  MediumRough,                            !- Roughness
  0.1104,                                 !- Thickness {m}
  0.0432,                                 !- Conductivity {W/m-K}
  91,                                     !- Density {kg/m3}
  836.999999999999,                       !- Specific Heat {J/kg-K}
  0.9,                                    !- Thermal Absorptance
  0.5,                                    !- Solar Absorptance
  0.5;                                    !- Visible Absorptance

OS:Construction,
  {2ae0016c-1878-4139-8256-5d4e97de00a5}, !- Handle
  ASHRAE 189.1-2009 ExtWall Mass ClimateZone alt-res 1, !- Name
  ,                                       !- Surface Rendering Name
  {00a7d17e-8b6c-485d-9a31-8c867dcf0b72}, !- Layer 1
  {f36c8cb8-8d9a-4fb7-ae1e-4bab88b9c1a4}, !- Layer 2
  {112df4b6-fd4f-47bd-83e1-f6931f15b48e}, !- Layer 3
  {95dbd9c0-3360-48f2-9467-0858c072ae78}; !- Layer 4

OS:StandardsInformation:Construction,
  {417b3174-d212-4187-99bc-ee715bfb8b86}, !- Handle
  {2ae0016c-1878-4139-8256-5d4e97de00a5}, !- Construction Name
  ExteriorWall,                           !- Intended Surface Type
  Mass;                                   !- Standards Construction Type

OS:Construction,
  {b03283ea-cdd8-4919-80b0-0eb1fb2e3216}, !- Handle
  ASHRAE 189.1-2009 ExtWall Mass ClimateZone alt-res 2, !- Name
  ,                                       !- Surface Rendering Name
  {00a7d17e-8b6c-485d-9a31-8c867dcf0b72}, !- Layer 1
  {f36c8cb8-8d9a-4fb7-ae1e-4bab88b9c1a4}, !- Layer 2
  {e9947e46-1795-42b2-8e32-06a949e7a434}, !- Layer 3
  {95dbd9c0-3360-48f2-9467-0858c072ae78}; !- Layer 4

OS:StandardsInformation:Construction,
  {e4569a78-3a03-49fb-9362-c69d11d798e8}, !- Handle
  {b03283ea-cdd8-4919-80b0-0eb1fb2e3216}, !- Construction Name
  ExteriorWall,                           !- Intended Surface Type
  Mass;                                   !- Standards Construction Type

OS:Construction,
  {adf3fb3f-eac2-4685-a99f-116ee96225df}, !- Handle
  ASHRAE 189.1-2009 ExtWall Mass ClimateZone alt-res 3, !- Name
  ,                                       !- Surface Rendering Name
  {00a7d17e-8b6c-485d-9a31-8c867dcf0b72}, !- Layer 1
  {f36c8cb8-8d9a-4fb7-ae1e-4bab88b9c1a4}, !- Layer 2
  {a337cd6f-2b9a-469a-999d-35dbb966a5b2}, !- Layer 3
  {95dbd9c0-3360-48f2-9467-0858c072ae78}; !- Layer 4

OS:StandardsInformation:Construction,
  {8ca5872d-96f7-46e9-9d05-9a56c6d8d535}, !- Handle
  {adf3fb3f-eac2-4685-a99f-116ee96225df}, !- Construction Name
  ExteriorWall,                           !- Intended Surface Type
  Mass;                                   !- Standards Construction Type

OS:Construction,
  {7ae2874a-326a-48c4-916c-d82776f8e442}, !- Handle
  ASHRAE 189.1-2009 ExtWall Mass ClimateZone alt-res 4, !- Name
  ,                                       !- Surface Rendering Name
  {00a7d17e-8b6c-485d-9a31-8c867dcf0b72}, !- Layer 1
  {f36c8cb8-8d9a-4fb7-ae1e-4bab88b9c1a4}, !- Layer 2
  {e85574e5-d2eb-4071-9a61-796729af6188}, !- Layer 3
  {95dbd9c0-3360-48f2-9467-0858c072ae78}; !- Layer 4

OS:StandardsInformation:Construction,
  {389c8f4c-9f3c-4998-a2c2-acb92b947e3e}, !- Handle
  {7ae2874a-326a-48c4-916c-d82776f8e442}, !- Construction Name
  ExteriorWall,                           !- Intended Surface Type
  Mass;                                   !- Standards Construction Type

OS:Construction,
  {b7ee24f5-7dff-429c-ab1a-4bffcb567f1d}, !- Handle
  ASHRAE 189.1-2009 ExtWall Mass ClimateZone alt-res 5, !- Name
  ,                                       !- Surface Rendering Name
  {00a7d17e-8b6c-485d-9a31-8c867dcf0b72}, !- Layer 1
  {f36c8cb8-8d9a-4fb7-ae1e-4bab88b9c1a4}, !- Layer 2
  {f06fabe2-5297-4f6d-ac92-83c2a3166afa}, !- Layer 3
  {95dbd9c0-3360-48f2-9467-0858c072ae78}; !- Layer 4

OS:StandardsInformation:Construction,
  {537de49d-ff56-49ff-bcb0-78879c9e348e}, !- Handle
  {b7ee24f5-7dff-429c-ab1a-4bffcb567f1d}, !- Construction Name
  ExteriorWall,                           !- Intended Surface Type
  Mass;                                   !- Standards Construction Type

OS:Construction,
  {a8855a7e-3fcc-4049-ac61-46e46d119edc}, !- Handle
  ASHRAE 189.1-2009 ExtWall Mass ClimateZone alt-res 6, !- Name
  ,                                       !- Surface Rendering Name
  {00a7d17e-8b6c-485d-9a31-8c867dcf0b72}, !- Layer 1
  {f36c8cb8-8d9a-4fb7-ae1e-4bab88b9c1a4}, !- Layer 2
  {0594f59a-ec6c-4a25-b084-308b9bed9e0f}, !- Layer 3
  {95dbd9c0-3360-48f2-9467-0858c072ae78}; !- Layer 4

OS:StandardsInformation:Construction,
  {42c3bfb9-6749-4d9f-a7fc-004d23066bf0}, !- Handle
  {a8855a7e-3fcc-4049-ac61-46e46d119edc}, !- Construction Name
  ExteriorWall,                           !- Intended Surface Type
  Mass;                                   !- Standards Construction Type

OS:Construction,
  {44706b52-8b1d-4874-afdb-0ab056512cc1}, !- Handle
  ASHRAE 189.1-2009 ExtWall Mass ClimateZone alt-res 7, !- Name
  ,                                       !- Surface Rendering Name
  {00a7d17e-8b6c-485d-9a31-8c867dcf0b72}, !- Layer 1
  {f36c8cb8-8d9a-4fb7-ae1e-4bab88b9c1a4}, !- Layer 2
  {0594f59a-ec6c-4a25-b084-308b9bed9e0f}, !- Layer 3
  {95dbd9c0-3360-48f2-9467-0858c072ae78}; !- Layer 4

OS:StandardsInformation:Construction,
  {76ac29fb-f5e6-4991-ab41-4efa70425b6c}, !- Handle
  {44706b52-8b1d-4874-afdb-0ab056512cc1}, !- Construction Name
  ExteriorWall,                           !- Intended Surface Type