
OS:Version,
  {67ba7ae3-8ef4-4e26-ab6b-9e9d0491f2bd}, !- Handle
  0.11.5;                                 !- Version Identifier

OS:Schedule:Constant,
  {ebc44060-05dd-4e1a-9377-cc629fb83fd8}, !- Handle
  Always On Discrete,                     !- Name
  {8f56845a-84b2-423c-adfb-f2509c27938c}, !- Schedule Type Limits Name
  1;                                      !- Value

OS:ScheduleTypeLimits,
  {8f56845a-84b2-423c-adfb-f2509c27938c}, !- Handle
  Always On Discrete Limits,              !- Name
  0,                                      !- Lower Limit Value {BasedOnField A4}
  1,                                      !- Upper Limit Value {BasedOnField A4}
  Discrete,                               !- Numeric Type
  Availability;                           !- Unit Type

OS:Building,
  {651afb05-bf88-4594-b7e5-92f3ccc0a817}, ! Handle
  Small Hotel,                            ! Name
  ,                                       ! Building Type
  -0,                                     ! North Axis
  ,                                       ! Nominal Floor to Floor Height
  {3877ce1c-2a3f-42d1-a843-d4068e8d7f47}, ! Space Type Name
  {23cd549f-99da-4e83-a483-1882b38cd0ad}, ! Default Construction Set Name
  ;                                       ! Default Schedule Set Name

OS:Construction,
  {fda2a9d9-250c-4ef2-a276-e21b0ca2b38b}, ! Handle
  000 AtticRoof ClimateZone 1-8,          ! Name
  {9f57917a-eda2-4f10-9e67-2ddff9acfec9}, ! Surface Rendering Name
  {4309f3a2-b4c5-4db2-a3ef-172d5ac56a16}, ! Layer 1
  {3df9374f-c973-46d6-84be-ebfe6f8c8219}; ! Layer 2

OS:Construction,
  {91207ad0-c411-4a04-b279-6f234a9617ac}, ! Handle
  000 ExtSlabCarpet 4in ClimateZone 1-8,  ! Name
  {96a4ba5c-ce77-446d-823c-dc386f3469b5}, ! Surface Rendering Name
  {d46060f4-ced8-498a-9b89-d0b016ceeb31}, ! Layer 1
  {cf877f00-36da-4f86-83ee-e71719ee5a74}; ! Layer 2

OS:Construction,
  {ccc81f80-83ff-4c7f-8582-80c0e4f13459}, ! Handle
  000 ExtSlabCarpet 8in ClimateZone 1-8,  ! Name
  {c4e310a7-6c4b-45f5-a37f-eb99f617939e}, ! Surface Rendering Name
  {cbfababd-c83a-451c-bc34-0dee161ff036}, ! Layer 1
  {cf877f00-36da-4f86-83ee-e71719ee5a74}; ! Layer 2

OS:Construction,
  {b5bad8d5-9f6b-4cc0-b1e6-bea3613ae4ac}, ! Handle
  000 ExtSlab 4in ClimateZone 1-8,        ! Name
  {74cbe88e-7425-4cba-a8af-364d8b82a102}, ! Surface Rendering Name
  {d46060f4-ced8-498a-9b89-d0b016ceeb31}; ! Layer 1

OS:Construction,
  {dff54aca-41db-4365-b1c3-4d923e6bdcdc}, ! Handle
  000 ExtSlab 8in ClimateZone 1-8,        ! Name
  {906c6645-3a3a-4882-be2c-0669106fe543}, ! Surface Rendering Name
  {cbfababd-c83a-451c-bc34-0dee161ff036}; ! Layer 1

OS:Construction,
  {9274addf-d204-4100-b6c2-30a83464a011}, ! Handle
  000 Exterior Door,                      ! Name
  {0e895bd1-9c31-4c31-b735-4ea233bfa605}, ! Surface Rendering Name
  {71e3764e-d03d-4cca-a720-ef63a6f421a5}, ! Layer 1
  {d9b684ee-f873-4754-ae91-798e6aea551f}; ! Layer 2

OS:Construction,
  {a2ab0ca1-af5d-4b34-9150-31c962a99d4c}, ! Handle
  000 Exterior Floor,                     ! Name
  {df4345dc-a412-4f4d-b745-10166c328594}, ! Surface Rendering Name
  {8c1cdea8-d534-4e89-9bbf-bdf353fcd000}, ! Layer 1
  {52013672-be8f-4019-89f4-92c390bc25ef}; ! Layer 2

OS:Construction,
  {c4cbbfd1-5bc6-49d9-b602-4bb68591b6c1}, ! Handle
  000 Exterior Roof,                      ! Name
  {b69c8d4d-d488-4f9b-a625-56681edcc06d}, ! Surface Rendering Name
  {91cbc98c-52ab-4446-b5a2-9029c980494d}, ! Layer 1
  {c0f91841-c3eb-448e-9768-55517c7cdb4a}, ! Layer 2
  {3bb60b60-6f06-413e-8987-feee8fefccdc}; ! Layer 3

OS:Construction,
  {7f6e4163-5b12-4821-a53c-c790498d331b}, ! Handle
  000 Exterior Wall,                      ! Name
  {6d1bbb10-b768-4e14-b6f0-cb8c8891f946}, ! Surface Rendering Name
  {ea055b34-23fb-47b1-9433-c675bfa6a1bd}, ! Layer 1
  {52013672-be8f-4019-89f4-92c390bc25ef}, ! Layer 2
  {8c1cdea8-d534-4e89-9bbf-bdf353fcd000}, ! Layer 3
  {91417bd7-b4fc-4a40-9ccb-19cd9217124e}, ! Layer 4
  {689a281a-9f0c-452b-b105-d1a0c05692a5}; ! Layer 5

OS:Construction,
  {63e07175-1fdd-429c-9c8b-45dca6e21310}, ! Handle
  000 Exterior Window,                    ! Name
  {84c7494b-38e7-4594-8d30-5a24dfa5c5a0}, ! Surface Rendering Name
  {d75e98ed-3a54-4936-bfa2-19e3b3c4323e}, ! Layer 1
  {94112a6c-69ca-4ff2-8255-cd4acdddce7d}, ! Layer 2
  {d75e98ed-3a54-4936-bfa2-19e3b3c4323e}; ! Layer 3

OS:Construction,
  {a24d2c55-df99-476c-a238-c4a91cf031e9}, ! Handle
  000 Interior Ceiling,                   ! Name
  {a53f555b-a770-4d5c-b600-bf7794c52020}, ! Surface Rendering Name
  {91cbc98c-52ab-4446-b5a2-9029c980494d}, ! Layer 1
  {c0f91841-c3eb-448e-9768-55517c7cdb4a}, ! Layer 2
  {3bb60b60-6f06-413e-8987-feee8fefccdc}; ! Layer 3

OS:Construction,
  {92f79dd1-e6b1-48c8-bc75-df09c107dca7}, ! Handle
  000 Interior Door,                      ! Name
  {831b9b81-5db9-4502-be2e-0a01b9275b38}, ! Surface Rendering Name
  {9fa83514-941f-4aa8-b4a4-2ff54635565b}; ! Layer 1

OS:Construction,
  {c2a6de11-0e13-4c12-a850-197051bf8e5c}, ! Handle
  000 Interior Floor,                     ! Name
  {0ec8db6c-d2bd-40be-b3dd-f293bf8c2503}, ! Surface Rendering Name
  {3bb60b60-6f06-413e-8987-feee8fefccdc}, ! Layer 1
  {c0f91841-c3eb-448e-9768-55517c7cdb4a}, ! Layer 2
  {91cbc98c-52ab-4446-b5a2-9029c980494d}; ! Layer 3

OS:Construction,
  {5e0b7710-1ea1-4eb4-ab84-7d945eb1071a}, ! Handle
  000 Interior Partition,                 ! Name
  {60722082-6c2d-45ba-9e48-c2b3146a5d5f}, ! Surface Rendering Name
  {9fa83514-941f-4aa8-b4a4-2ff54635565b}; ! Layer 1

OS:Construction,
  {7f91deed-963d-48e8-a152-e4702af25e42}, ! Handle
  000 Interior Wall,                      ! Name
  {e61e5685-bab3-40e4-a247-70896831be1e}, ! Surface Rendering Name
  {689a281a-9f0c-452b-b105-d1a0c05692a5}, ! Layer 1
  {91417bd7-b4fc-4a40-9ccb-19cd9217124e}, ! Layer 2
  {689a281a-9f0c-452b-b105-d1a0c05692a5}; ! Layer 3

OS:Construction,
  {c2b9e26c-e184-4efc-a46d-858b6f60a821}, ! Handle
  000 Interior Window,                    ! Name
  {f0812860-cfdd-4e4e-9a22-06ebf35de562}, ! Surface Rendering Name
  {d75e98ed-3a54-4936-bfa2-19e3b3c4323e}; ! Layer 1

OS:Construction,
  {278449bb-6df9-45bc-9f0a-dcb325b14a3d}, ! Handle
  ASHRAE 189.1-2009 AtticFloor ClimateZone 1-8, ! Name
  {61e814fd-c908-46af-ac38-76a1a2ef00ef}, ! Surface Rendering Name
  {41e078c2-9f13-40c1-9fa1-35f0c3a9c3e1}, ! Layer 1
  {99ad9c64-5db0-4a01-94b6-0656170f76e0}, ! Layer 2
  {41e078c2-9f13-40c1-9fa1-35f0c3a9c3e1}; ! Layer 3

OS:Construction,
  {63c3e28a-a936-41be-979f-753d345415ec}, ! Handle
  ASHRAE 189.1-2009 ExtRoof IEAD ClimateZone 1, ! Name
  {861a0d8e-9522-4d88-8424-21fc86f24ed8}, ! Surface Rendering Name
  {4309f3a2-b4c5-4db2-a3ef-172d5ac56a16}, ! Layer 1
  {c4ab6544-002f-46be-9c5d-57e699d3aa72}, ! Layer 2
  {3df9374f-c973-46d6-84be-ebfe6f8c8219}; ! Layer 3

OS:Construction,
  {5e539602-dca6-423f-aff1-7464c5035565}, ! Handle
  ASHRAE 189.1-2009 ExtRoof IEAD ClimateZone 2-5, ! Name
  {796844a6-7eab-4bfc-940b-8e9af1da36ca}, ! Surface Rendering Name
  {4309f3a2-b4c5-4db2-a3ef-172d5ac56a16}, ! Layer 1
  {4c335018-81ff-42ad-8819-4537a694be09}, ! Layer 2
  {3df9374f-c973-46d6-84be-ebfe6f8c8219}; ! Layer 3

OS:Construction,
  {183a9d30-52d7-4656-8363-8b82d26d3619}, ! Handle
  ASHRAE 189.1-2009 ExtRoof IEAD ClimateZone 6, ! Name
  {2ec4162e-886f-4fb3-b52d-41deb4526ec1}, ! Surface Rendering Name
  {4309f3a2-b4c5-4db2-a3ef-172d5ac56a16}, ! Layer 1
  {e43f73ee-4d7e-439c-8b23-f2e6a577f973}, ! Layer 2
  {3df9374f-c973-46d6-84be-ebfe6f8c8219}; ! Layer 3

OS:Construction,
  {a806e8ef-82bb-4ee9-8d83-3c830ae98e6f}, ! Handle
  ASHRAE 189.1-2009 ExtRoof IEAD ClimateZone 7-8, ! Name
  {96a1e636-212d-4914-85d7-b91a4d8ede2f}, ! Surface Rendering Name
  {4309f3a2-b4c5-4db2-a3ef-172d5ac56a16}, ! Layer 1
  {70e6f6d5-321c-43d2-bb23-83e66638ca50}, ! Layer 2
  {3df9374f-c973-46d6-84be-ebfe6f8c8219}; ! Layer 3

OS:Construction,
  {657bf47f-53e0-4b5e-b63f-424125eafecd}, ! Handle
  ASHRAE 189.1-2009 ExtRoof Metal ClimateZone 1, ! Name
  {700fd30e-2712-4a1b-b2de-e306ca0e102f}, ! Surface Rendering Name
  {b4b6f5b1-abc0-4bbd-8ebb-80563c13dc33}, ! Layer 1
  {63992f5e-efd6-49ac-a076-222ba11b84bb}; ! Layer 2

OS:Construction,
  {561af7e4-0016-4738-8951-363b1a33fe93}, ! Handle
  ASHRAE 189.1-2009 ExtRoof Metal ClimateZone 2-5, ! Name
  {cf8f76b3-150f-4a09-8652-3103d8ed1e8d}, ! Surface Rendering Name
  {b4b6f5b1-abc0-4bbd-8ebb-80563c13dc33}, ! Layer 1
  {901e9217-a389-498e-b85d-6a468bd86c9f}; ! Layer 2

OS:Construction,
  {f773c395-13af-4c20-935d-c26a1c848002}, ! Handle
  ASHRAE 189.1-2009 ExtRoof Metal ClimateZone 6, ! Name
  {dd8b6f94-dca5-424e-a5cd-614e6d8df824}, ! Surface Rendering Name
  {b4b6f5b1-abc0-4bbd-8ebb-80563c13dc33}, ! Layer 1
  {d3e99b1e-107b-4ced-b285-5b0102d5f37f}; ! Layer 2

OS:Construction,
  {3ac8b07e-ef3c-424d-a1bd-35f6781ae14f}, ! Handle
  ASHRAE 189.1-2009 ExtRoof Metal ClimateZone 7-8, ! Name
  {044f8244-0287-4ce9-92df-f223a3e77bdc}, ! Surface Rendering Name
  {b4b6f5b1-abc0-4bbd-8ebb-80563c13dc33}, ! Layer 1
  {c3c4431c-98f2-4259-81cf-1e6f28633f10}; ! Layer 2

OS:Construction,
  {ca29ca6a-97d3-4795-b11a-1211fca55ad1}, ! Handle
  ASHRAE 189.1-2009 ExtWall Mass ClimateZone 1, ! Name
  {6ab0f849-2915-421f-a9fb-5b7d79448027}, ! Surface Rendering Name
  {22b694ab-8dec-4e10-8978-f4b6d74171a8}, ! Layer 1
  {2156b7e3-ba29-46b8-88dd-7f1a480692a5}, ! Layer 2
  {8a9f9ca5-89e6-4d91-8b88-e657df0adbf1}, ! Layer 3
  {41e078c2-9f13-40c1-9fa1-35f0c3a9c3e1}; ! Layer 4

OS:Construction,
  {0e4b953b-e0a8-4b15-af33-02c47402d8ff}, ! Handle
  ASHRAE 189.1-2009 ExtWall Mass ClimateZone 2, ! Name
  {ba037a32-277d-4fe1-a61c-b6225e780f03}, ! Surface Rendering Name
  {22b694ab-8dec-4e10-8978-f4b6d74171a8}, ! Layer 1
  {2156b7e3-ba29-46b8-88dd-7f1a480692a5}, ! Layer 2
  {8c9a6059-aa25-4571-aab0-c4013cb62d3a}, ! Layer 3
  {41e078c2-9f13-40c1-9fa1-35f0c3a9c3e1}; ! Layer 4

OS:Construction,
  {c12ab79b-393d-479c-9b6c-381a31f1b48f}, ! Handle
  ASHRAE 189.1-2009 ExtWall Mass ClimateZone 3, ! Name
  {0d4caf19-25a2-4360-a474-97939bc93a5a}, ! Surface Rendering Name
  {22b694ab-8dec-4e10-8978-f4b6d74171a8}, ! Layer 1
  {2156b7e3-ba29-46b8-88dd-7f1a480692a5}, ! Layer 2
  {2dcfebe2-514b-419d-a22b-3699a9b88d7b}, ! Layer 3
  {41e078c2-9f13-40c1-9fa1-35f0c3a9c3e1}; ! Layer 4

OS:Construction,
  {b09ddbde-0dea-47aa-ad5f-213b276a554f}, ! Handle
  ASHRAE 189.1-2009 ExtWall Mass ClimateZone 4, ! Name
  {daa365ca-ae9e-4069-a212-b8fa95957e03}, ! Surface Rendering Name
  {22b694ab-8dec-4e10-8978-f4b6d74171a8}, ! Layer 1
  {2156b7e3-ba29-46b8-88dd-7f1a480692a5}, ! Layer 2
  {8ccc3ee3-12e1-486f-bcca-7e955745c075}, ! Layer 3
  {41e078c2-9f13-40c1-9fa1-35f0c3a9c3e1}; ! Layer 4

OS:Construction,
  {cffbb873-859e-4c4a-ad0d-b589d68b07cc}, ! Handle
  ASHRAE 189.1-2009 ExtWall Mass ClimateZone 5, ! Name
  {5818afcd-7e08-4cd4-8f4c-85b60e59865b}, ! Surface Rendering Name
  {22b694ab-8dec-4e10-8978-f4b6d74171a8}, ! Layer 1
  {2156b7e3-ba29-46b8-88dd-7f1a480692a5}, ! Layer 2
  {5e02a28c-49fc-4063-bf50-377049175d85}, ! Layer 3
  {41e078c2-9f13-40c1-9fa1-35f0c3a9c3e1}; ! Layer 4

OS:Construction,
  {416f9157-91dc-4908-b0cb-6b462968dcc6}, ! Handle
  ASHRAE 189.1-2009 ExtWall Mass ClimateZone 6, ! Name
  {c243a464-70fc-4713-84e4-ec0ee075d659}, ! Surface Rendering Name
  {22b694ab-8dec-4e10-8978-f4b6d74171a8}, ! Layer 1
  {2156b7e3-ba29-46b8-88dd-7f1a480692a5}, ! Layer 2
  {2fd234f1-f398-482e-b322-f09e9d84785c}, ! Layer 3
  {41e078c2-9f13-40c1-9fa1-35f0c3a9c3e1}; ! Layer 4

OS:Construction,
  {250aa118-bee6-48ce-af6a-71d92873ab23}, ! Handle
  ASHRAE 189.1-2009 ExtWall Mass ClimateZone 7-8, ! Name
  {eb8fc5e9-6ad2-48ba-bfdc-40522f33db37}, ! Surface Rendering Name
  {22b694ab-8dec-4e10-8978-f4b6d74171a8}, ! Layer 1
  {2156b7e3-ba29-46b8-88dd-7f1a480692a5}, ! Layer 2
  {2ff495a5-cc7a-409e-a484-d6568a76e93c}, ! Layer 3
  {41e078c2-9f13-40c1-9fa1-35f0c3a9c3e1}; ! Layer 4

OS:Construction,
  {cc1353dc-551b-4311-8126-8ce33fe03e36}, ! Handle
  ASHRAE 189.1-2009 ExtWall Mass ClimateZone alt-res 1, ! Name
  {9289d601-8d6b-4806-8887-7d4dcc31edab}, ! Surface Rendering Name
  {22b694ab-8dec-4e10-8978-f4b6d74171a8}, ! Layer 1
  {2156b7e3-ba29-46b8-88dd-7f1a480692a5}, ! Layer 2
  {8c9a6059-aa25-4571-aab0-c4013cb62d3a}, ! Layer 3
  {41e078c2-9f13-40c1-9fa1-35f0c3a9c3e1}; ! Layer 4

OS:Construction,
  {626af8b6-8f86-4eef-9147-e7391d24e3e1}, ! Handle
  ASHRAE 189.1-2009 ExtWall Mass ClimateZone alt-res 2, ! Name
  {42fe1936-eec8-4ab3-b4a5-bbd257fe478d}, ! Surface Rendering Name
  {22b694ab-8dec-4e10-8978-f4b6d74171a8}, ! Layer 1
  {2156b7e3-ba29-46b8-88dd-7f1a480692a5}, ! Layer 2
  {2dcfebe2-514b-419d-a22b-3699a9b88d7b}, ! Layer 3
  {41e078c2-9f13-40c1-9fa1-35f0c3a9c3e1}; ! Layer 4

OS:Construction,
  {eb3ac6ae-f8b1-4bf1-8702-24baf6feee1b}, ! Handle
  ASHRAE 189.1-2009 ExtWall Mass ClimateZone alt-res 3, ! Name
  {b8a1408b-c72e-47b7-ab3e-eb4fb6c0ac1f}, ! Surface Rendering Name
  {22b694ab-8dec-4e10-8978-f4b6d74171a8}, ! Layer 1
  {2156b7e3-ba29-46b8-88dd-7f1a480692a5}, ! Layer 2
  {8ccc3ee3-12e1-486f-bcca-7e955745c075}, ! Layer 3
  {41e078c2-9f13-40c1-9fa1-35f0c3a9c3e1}; ! Layer 4

OS:Construction,
  {d2685439-1457-4fe3-a948-2ca3b21ba64a}, ! Handle
  ASHRAE 189.1-2009 ExtWall Mass ClimateZone alt-res 4, ! Name
  {2c47dec5-8818-4820-89df-6fa2b0a8784f}, ! Surface Rendering Name
  {22b694ab-8dec-4e10-8978-f4b6d74171a8}, ! Layer 1
  {2156b7e3-ba29-46b8-88dd-7f1a480692a5}, ! Layer 2
  {5e02a28c-49fc-4063-bf50-377049175d85}, ! Layer 3
  {41e078c2-9f13-40c1-9fa1-35f0c3a9c3e1}; ! Layer 4

OS:Construction,
  {a77c809d-53ff-49ed-a876-1ac6ad09b4cd}, ! Handle
  ASHRAE 189.1-2009 ExtWall Mass ClimateZone alt-res 5, ! Name
  {7b91c7f1-85b4-4b0b-a596-a6c77642cb2b}, ! Surface Rendering Name
  {22b694ab-8dec-4e10-8978-f4b6d74171a8}, ! Layer 1
  {2156b7e3-ba29-46b8-88dd-7f1a480692a5}, ! Layer 2
  {2fd234f1-f398-482e-b322-f09e9d84785c}, ! Layer 3
  {41e078c2-9f13-40c1-9fa1-35f0c3a9c3e1}; ! Layer 4

OS:Construction,
  {7ad42a9b-45ba-4414-a14d-acb5d5665158}, ! Handle
  ASHRAE 189.1-2009 ExtWall Mass ClimateZone alt-res 6, ! Name
  {43f26642-c98c-474a-af2b-672b86cc5ce3}, ! Surface Rendering Name
  {22b694ab-8dec-4e10-8978-f4b6d74171a8}, ! Layer 1
  {2156b7e3-ba29-46b8-88dd-7f1a480692a5}, ! Layer 2
  {2ff495a5-cc7a-409e-a484-d6568a76e93c}, ! Layer 3
  {41e078c2-9f13-40c1-9fa1-35f0c3a9c3e1}; ! Layer 4

OS:Construction,
  {363fab9b-95ad-41fe-ba83-70a2dde0c3a1}, ! Handle
  ASHRAE 189.1-2009 ExtWall Mass ClimateZone alt-res 7, ! Name
  {5965c650-7207-421e-9a43-b64b4c49eb59}, ! Surface Rendering Name
  {22b694ab-8dec-4e10-8978-f4b6d74171a8}, ! Layer 1
  {2156b7e3-ba29-46b8-88dd-7f1a480692a5}, ! Layer 2
  {2ff495a5-cc7a-409e-a484-d6568a76e93c}, ! Layer 3
  {41e078c2-9f13-40c1-9fa1-35f0c3a9c3e1}; ! Layer 4

OS:Construction,
  {35750f5a-6382-4bc7-9d56-e9d87ea5e4e4}, ! Handle
  ASHRAE 189.1-2009 ExtWall Mass ClimateZone alt-res 8, ! Name
  {32670e56-1daa-426f-a4f5-48f5aaf4f33a}, ! Surface Rendering Name
  {22b694ab-8dec-4e10-8978-f4b6d74171a8}, ! Layer 1
  {2156b7e3-ba29-46b8-88dd-7f1a480692a5}, ! Layer 2
  {564d7bbe-cf0c-43c5-b0b3-60f93b5a049d}, ! Layer 3
  {41e078c2-9f13-40c1-9fa1-35f0c3a9c3e1}; ! Layer 4

OS:Construction,
  {906656e0-3620-47b4-aaec-a2db0a8f2d59}, ! Handle
  ASHRAE 189.1-2009 ExtWall Metal ClimateZone 1-3, ! Name
  {ce24efc4-3d88-4719-9c36-d79bad8a5cee}, ! Surface Rendering Name
  {9b30a9f6-9d12-4bbb-8332-f344cbc97cdf}, ! Layer 1
  {5ac47b5f-cc6c-42ab-bbf8-557a1be052f5}, ! Layer 2
  {41e078c2-9f13-40c1-9fa1-35f0c3a9c3e1}; ! Layer 3

OS:Construction,
  {1cb7c457-1051-443a-891f-9404ad2b97c5}, ! Handle
  ASHRAE 189.1-2009 ExtWall Metal ClimateZone 4-8, ! Name
  {009320a5-1bbf-4d32-8bdd-dfd764458f7c}, ! Surface Rendering Name
  {9b30a9f6-9d12-4bbb-8332-f344cbc97cdf}, ! Layer 1
  {396db42a-3208-4ab9-90a3-03021d7d1c46}, ! Layer 2
  {41e078c2-9f13-40c1-9fa1-35f0c3a9c3e1}; ! Layer 3

OS:Construction,
  {b4f9da02-12e7-4348-a8c5-9cd139c692b2}, ! Handle
  ASHRAE 189.1-2009 ExtWall SteelFrame ClimateZone 1-3, ! Name
  {ae9809a4-db30-49d9-bf9a-41a990cc03a1}, ! Surface Rendering Name
  {71043777-2cff-4c54-a6fe-59a0f8d03f6a}, ! Layer 1
  {67ab362f-953d-4dbf-8d34-dfdf41dd2178}, ! Layer 2
  {41e078c2-9f13-40c1-9fa1-35f0c3a9c3e1}; ! Layer 3

OS:Construction,
  {915fd5c6-a2e8-4b51-843a-3383d4d74363}, ! Handle
  ASHRAE 189.1-2009 ExtWall SteelFrame ClimateZone 4-8, ! Name
  {6eb0fc5b-0a5e-4397-93b6-6ab186455de4}, ! Surface Rendering Name
  {71043777-2cff-4c54-a6fe-59a0f8d03f6a}, ! Layer 1
  {798563be-9385-4c42-a035-2e9cfb924515}, ! Layer 2
  {41e078c2-9f13-40c1-9fa1-35f0c3a9c3e1}; ! Layer 3

OS:Construction,
  {4e3b6e8f-8e0d-4fd7-a111-83b09c314176}, ! Handle
  ASHRAE 189.1-2009 ExtWall WoodFrame ClimateZone 1-4, ! Name
  {e15a4b6c-a7e4-4342-a209-6388484d78c4}, ! Surface Rendering Name
  {9d40e848-aee8-4656-a77c-cfeca0e16ae0}, ! Layer 1
  {2f3f3e3f-1f20-442f-b10c-c882ac0b15b1}, ! Layer 2
  {41e078c2-9f13-40c1-9fa1-35f0c3a9c3e1}; ! Layer 3

OS:Construction,
  {a2beaaf3-b681-4fc6-8dd3-12ab02f73974}, ! Handle
  ASHRAE 189.1-2009 ExtWall WoodFrame ClimateZone 5, ! Name
  {555c96eb-337e-489c-be71-030871092e33}, ! Surface Rendering Name
  {9d40e848-aee8-4656-a77c-cfeca0e16ae0}, ! Layer 1
  {3160d61e-8c4d-42ad-a2da-bb1aaedd6cbd}, ! Layer 2
  {41e078c2-9f13-40c1-9fa1-35f0c3a9c3e1}; ! Layer 3

OS:Construction,
  {fd175ae9-cde6-450f-a4f6-b980300c318f}, ! Handle
  ASHRAE 189.1-2009 ExtWall WoodFrame ClimateZone 6-8, ! Name
  {4b34f9a5-a9e6-412a-a3a6-ecf578803fdf}, ! Surface Rendering Name
  {9d40e848-aee8-4656-a77c-cfeca0e16ae0}, ! Layer 1
  {9d019dbb-a009-48ac-a4ac-39ea41341743}, ! Layer 2
  {41e078c2-9f13-40c1-9fa1-35f0c3a9c3e1}; ! Layer 3

OS:Construction,
  {ab3ea8a6-bae0-4e37-9c50-8a2d15c6d4cf}, ! Handle
  ASHRAE 189.1-2009 ExtWindow ClimateZone 1, ! Name
  {59b3ab30-0069-476e-ab52-442d8bf6de93}, ! Surface Rendering Name
  {ffc31599-2d43-44d3-8652-d5f356a8144c}; ! Layer 1

OS:Construction,
  {4e2cd0a4-9a24-434f-94d8-08ad68d34396}, ! Handle
  ASHRAE 189.1-2009 ExtWindow ClimateZone 2, ! Name
  {4f32f050-6632-41f1-a3f8-eec22fde04fe}, ! Surface Rendering Name
  {8112d6c6-bc78-4823-bf11-228298117ca7}; ! Layer 1

OS:Construction,
  {e54adb13-ed31-4574-be73-4054e9e263d1}, ! Handle
  ASHRAE 189.1-2009 ExtWindow ClimateZone 3, ! Name
  {62be16de-8b45-4fa3-be8c-a67f94888630}, ! Surface Rendering Name
  {c0a9fdce-76df-45df-a705-8977fa05c4ea}; ! Layer 1

OS:Construction,
  {7368747e-f28d-4203-8061-6d9584f4d7ca}, ! Handle
  ASHRAE 189.1-2009 ExtWindow ClimateZone 4-5, ! Name
  {ed7259ea-0d37-406d-ab66-1c14217cf413}, ! Surface Rendering Name
  {247490bd-3931-4726-b87b-a1a84d78e842}; ! Layer 1

OS:Construction,
  {9b53f3cb-8be7-4d6d-a142-e630554063b2}, ! Handle
  ASHRAE 189.1-2009 ExtWindow ClimateZone 6, ! Name
  {cc6a1e5a-881d-4be7-bbb7-a05898683d58}, ! Surface Rendering Name
  {b7b205fc-1ad4-4465-b065-38ef32cbb33a}; ! Layer 1

OS:Construction,
  {900e23b9-05e6-4092-b089-44862c2bb72f}, ! Handle
  ASHRAE 189.1-2009 ExtWindow ClimateZone 7-8, ! Name
  {dde5d8da-a4a1-4c53-9b5a-8230b1d6b425}, ! Surface Rendering Name
  {90996339-3af1-42c0-8e73-f8b63c14443c}; ! Layer 1

OS:Construction,
  {e7569065-63dd-4d4b-afa2-d1769c346212}, ! Handle
  ASHRAE 189.1-2009 ExtWindow ClimateZone alt-res 4-5, ! Name
  {eb89f067-ac3b-4fc2-9f38-b246df29b51e}, ! Surface Rendering Name
  {b7b205fc-1ad4-4465-b065-38ef32cbb33a}; ! Layer 1

OS:Construction,
  {0cf99719-816b-403c-95c5-11b9e74fc3c4}, ! Handle
  ASHRAE 90.1-2004 AtticFloor ClimateZone 1-5, ! Name
  {cbebd42d-fbb3-4072-86b2-645bc4f7b6df}, ! Surface Rendering Name
  {41e078c2-9f13-40c1-9fa1-35f0c3a9c3e1}, ! Layer 1
  {3fba5da0-317f-47fb-8baa-a7406be4972a}, ! Layer 2
  {41e078c2-9f13-40c1-9fa1-35f0c3a9c3e1}; ! Layer 3

OS:Construction,
  {4f988fc9-b187-4fd7-bcc3-adbd6856dc12}, ! Handle
  ASHRAE 90.1-2004 AtticFloor ClimateZone 6-8, ! Name
  {048aa4c8-d4e8-4c48-a340-72b445605d9e}, ! Surface Rendering Name
  {41e078c2-9f13-40c1-9fa1-35f0c3a9c3e1}, ! Layer 1
  {aa0163ea-ab33-4594-98f4-671495031af1}, ! Layer 2
  {41e078c2-9f13-40c1-9fa1-35f0c3a9c3e1}; ! Layer 3

OS:Construction,
  {2ff7186e-c06b-46e4-be72-92ef99e8e986}, ! Handle
  ASHRAE 90.1-2004 ExtRoof IEAD ClimateZone 1-4, ! Name
  {38f4aa01-c2a9-439b-a4eb-dd618dec3f38}, ! Surface Rendering Name
  {4309f3a2-b4c5-4db2-a3ef-172d5ac56a16}, ! Layer 1
  {5c143629-3e47-43bf-8247-8be9ca86ceb6}, ! Layer 2
  {3df9374f-c973-46d6-84be-ebfe6f8c8219}; ! Layer 3

OS:Construction,
  {1de885c5-1acf-4fa1-adaa-f1f1cf2abe40}, ! Handle
  ASHRAE 90.1-2004 ExtRoof IEAD ClimateZone 5-6, ! Name
  {535bb258-3b09-4276-91f9-4ab2d98fd04d}, ! Surface Rendering Name
  {4309f3a2-b4c5-4db2-a3ef-172d5ac56a16}, ! Layer 1
  {62697c88-d9fc-4995-b174-14afd04b0690}, ! Layer 2
  {3df9374f-c973-46d6-84be-ebfe6f8c8219}; ! Layer 3

OS:Construction,
  {e8457e5b-107a-4dc1-89a7-0d92adea6f32}, ! Handle
  ASHRAE 90.1-2004 ExtRoof IEAD ClimateZone 7, ! Name
  {1281bc51-828d-4e15-9ef0-89ead828dbc8}, ! Surface Rendering Name
  {4309f3a2-b4c5-4db2-a3ef-172d5ac56a16}, ! Layer 1
  {5c143629-3e47-43bf-8247-8be9ca86ceb6}, ! Layer 2
  {3df9374f-c973-46d6-84be-ebfe6f8c8219}; ! Layer 3

OS:Construction,
  {f743bd24-137d-4f53-8ecf-26c40b234848}, ! Handle
  ASHRAE 90.1-2004 ExtRoof IEAD ClimateZone 8, ! Name
  {12752632-dd48-4999-a348-75db6b53b7c2}, ! Surface Rendering Name
  {4309f3a2-b4c5-4db2-a3ef-172d5ac56a16}, ! Layer 1
  {f4564470-b41b-4065-bc57-8be17f969eed}, ! Layer 2
  {3df9374f-c973-46d6-84be-ebfe6f8c8219}; ! Layer 3

OS:Construction,
  {cb1cc346-3a0a-4ff0-9408-5f6cefa30fd7}, ! Handle
  ASHRAE 90.1-2004 ExtRoof Metal ClimateZone 1, ! Name
  {c50ab942-007b-49d8-bed5-cf2161a1325a}, ! Surface Rendering Name
  {b4b6f5b1-abc0-4bbd-8ebb-80563c13dc33}; ! Layer 1

OS:Construction,
  {86365db5-21fb-4332-9342-718892359070}, ! Handle
  ASHRAE 90.1-2004 ExtRoof Metal ClimateZone 2, ! Name
  {25628072-d483-42d7-94cb-7c9cddd354a4}, ! Surface Rendering Name
  {b4b6f5b1-abc0-4bbd-8ebb-80563c13dc33}, ! Layer 1
  {a88d8453-b798-4a37-8eb4-43729934ff6d}; ! Layer 2

OS:Construction,
  {a18798fe-ff22-4237-8db2-a4e9c1922ed9}, ! Handle
  ASHRAE 90.1-2004 ExtRoof Metal ClimateZone 3-4, ! Name
  {4ab13dce-710e-4de1-9235-e0b94143bad9}, ! Surface Rendering Name
  {b4b6f5b1-abc0-4bbd-8ebb-80563c13dc33}, ! Layer 1
  {4c2fc74c-defc-4262-ba1b-c8c30c180a37}; ! Layer 2

OS:Construction,
  {3c4e4310-edf9-410f-a712-128a06e48196}, ! Handle
  ASHRAE 90.1-2004 ExtRoof Metal ClimateZone 5-6, ! Name
  {6f091031-64fb-4015-9843-1c5e7bef7da6}, ! Surface Rendering Name
  {b4b6f5b1-abc0-4bbd-8ebb-80563c13dc33}, ! Layer 1
  {849ceab1-c253-42ef-b198-a98c0c3c5302}; ! Layer 2

OS:Construction,
  {f3c9c4d0-00ba-4e88-b568-dccd54460f28}, ! Handle
  ASHRAE 90.1-2004 ExtRoof Metal ClimateZone 7, ! Name
  {c630356a-89ec-40d8-a080-35954fe59bd4}, ! Surface Rendering Name
  {b4b6f5b1-abc0-4bbd-8ebb-80563c13dc33}, ! Layer 1
  {4c2fc74c-defc-4262-ba1b-c8c30c180a37}; ! Layer 2

OS:Construction,
  {6b881d4a-05ab-44e1-a277-728d63def500}, ! Handle
  ASHRAE 90.1-2004 ExtRoof Metal ClimateZone 8, ! Name
  {030c7cbe-eaac-4b66-be60-e2673925a80a}, ! Surface Rendering Name
  {b4b6f5b1-abc0-4bbd-8ebb-80563c13dc33}, ! Layer 1
  {94521b3c-b676-420e-b942-0a9abdd70e5c}; ! Layer 2

OS:Construction,
  {be6e3baa-4d7f-47b7-981e-c751e1b732b4}, ! Handle
  ASHRAE 90.1-2004 ExtWall Mass ClimateZone 1-2, ! Name
  {5b6dbc12-2287-477b-9a15-c0e48ad1ddcf}, ! Surface Rendering Name
  {22b694ab-8dec-4e10-8978-f4b6d74171a8}, ! Layer 1
  {416edaca-1fca-4701-8acd-acc03d152726}, ! Layer 2
  {41e078c2-9f13-40c1-9fa1-35f0c3a9c3e1}; ! Layer 3

OS:Construction,
  {a37d52d2-181f-4c9e-af55-c6a71833543d}, ! Handle
  ASHRAE 90.1-2004 ExtWall Mass ClimateZone 3-4, ! Name
  {74bd385b-1ffb-4d17-8420-1b1d3dcd574c}, ! Surface Rendering Name
  {22b694ab-8dec-4e10-8978-f4b6d74171a8}, ! Layer 1
  {416edaca-1fca-4701-8acd-acc03d152726}, ! Layer 2
  {4b5b2b62-e0dd-4543-badf-e52c272378dd}, ! Layer 3
  {41e078c2-9f13-40c1-9fa1-35f0c3a9c3e1}; ! Layer 4

OS:Construction,
  {68229504-4ef1-4706-98b1-0d0f603cc32b}, ! Handle
  ASHRAE 90.1-2004 ExtWall Mass ClimateZone 5, ! Name
  {5110ea2a-9ede-40c1-a60b-495664f65a83}, ! Surface Rendering Name
  {22b694ab-8dec-4e10-8978-f4b6d74171a8}, ! Layer 1
  {416edaca-1fca-4701-8acd-acc03d152726}, ! Layer 2
  {f40d5d6c-59ad-4a2a-9081-3c34f604a264}, ! Layer 3
  {41e078c2-9f13-40c1-9fa1-35f0c3a9c3e1}; ! Layer 4

OS:Construction,
  {1270f913-fbe3-4d41-87a6-1e22d463f976}, ! Handle
  ASHRAE 90.1-2004 ExtWall Mass ClimateZone 6, ! Name
  {31cf512e-7ab1-43a9-b990-4ce735ec92c1}, ! Surface Rendering Name
  {22b694ab-8dec-4e10-8978-f4b6d74171a8}, ! Layer 1
  {416edaca-1fca-4701-8acd-acc03d152726}, ! Layer 2
  {ba9a91de-e9ca-4530-9915-d75c58ca249c}, ! Layer 3
  {41e078c2-9f13-40c1-9fa1-35f0c3a9c3e1}; ! Layer 4

OS:Construction,
  {e31f514a-42fd-47d7-8078-2fd2b5bd8670}, ! Handle
  ASHRAE 90.1-2004 ExtWall Mass ClimateZone 7, ! Name
  {fb411a24-2208-479c-8cfe-7219e0f2d9fa}, ! Surface Rendering Name
  {22b694ab-8dec-4e10-8978-f4b6d74171a8}, ! Layer 1
  {416edaca-1fca-4701-8acd-acc03d152726}, ! Layer 2
  {881ee28a-d304-4c1a-9f79-8697895a1b36}, ! Layer 3
  {41e078c2-9f13-40c1-9fa1-35f0c3a9c3e1}; ! Layer 4

OS:Construction,
  {8a1813ad-b174-4ddf-994f-90e4592b84b1}, ! Handle
  ASHRAE 90.1-2004 ExtWall Mass ClimateZone 8, ! Name
  {75a78cdc-6193-4b98-ae6e-7c1e8482b892}, ! Surface Rendering Name
  {22b694ab-8dec-4e10-8978-f4b6d74171a8}, ! Layer 1
  {416edaca-1fca-4701-8acd-acc03d152726}, ! Layer 2
  {b7704482-e728-4439-956d-c12b8f044828}, ! Layer 3
  {41e078c2-9f13-40c1-9fa1-35f0c3a9c3e1}; ! Layer 4

OS:Construction,
  {46c4c6bd-92fd-4620-9e04-4565be0af4b2}, ! Handle
  ASHRAE 90.1-2004 ExtWall Mass ClimateZone alt-res 1-2, ! Name
  {87f5ea1d-ffc1-4179-b7cf-48258bfb40d4}, ! Surface Rendering Name
  {22b694ab-8dec-4e10-8978-f4b6d74171a8}, ! Layer 1
  {416edaca-1fca-4701-8acd-acc03d152726}, ! Layer 2
  {4b5b2b62-e0dd-4543-badf-e52c272378dd}, ! Layer 3
  {41e078c2-9f13-40c1-9fa1-35f0c3a9c3e1}; ! Layer 4

OS:Construction,
  {883378cd-1a22-4d6b-be07-73c68b3a8c5c}, ! Handle
  ASHRAE 90.1-2004 ExtWall Mass ClimateZone alt-res 3, ! Name
  {9fa6b308-3385-4ecb-8dca-fe029544c94c}, ! Surface Rendering Name
  {22b694ab-8dec-4e10-8978-f4b6d74171a8}, ! Layer 1
  {416edaca-1fca-4701-8acd-acc03d152726}, ! Layer 2
  {f40d5d6c-59ad-4a2a-9081-3c34f604a264}, ! Layer 3
  {41e078c2-9f13-40c1-9fa1-35f0c3a9c3e1}; ! Layer 4

OS:Construction,
  {8113af02-8680-4341-9484-88e332845014}, ! Handle
  ASHRAE 90.1-2004 ExtWall Mass ClimateZone alt-res 4, ! Name
  {b0f3a289-41e0-441c-b2d1-b40d7071b4fe}, ! Surface Rendering Name
  {22b694ab-8dec-4e10-8978-f4b6d74171a8}, ! Layer 1
  {416edaca-1fca-4701-8acd-acc03d152726}, ! Layer 2
  {ba9a91de-e9ca-4530-9915-d75c58ca249c}, ! Layer 3
  {41e078c2-9f13-40c1-9fa1-35f0c3a9c3e1}; ! Layer 4

OS:Construction,
  {c167344b-54b9-4b7f-a378-d2fda5390b64}, ! Handle
  ASHRAE 90.1-2004 ExtWall Mass ClimateZone alt-res 5-6, ! Name
  {a0ec44d5-e298-4a85-b8d8-cb738d135485}, ! Surface Rendering Name
  {22b694ab-8dec-4e10-8978-f4b6d74171a8}, ! Layer 1
  {416edaca-1fca-4701-8acd-acc03d152726}, ! Layer 2
  {881ee28a-d304-4c1a-9f79-8697895a1b36}, ! Layer 3
  {41e078c2-9f13-40c1-9fa1-35f0c3a9c3e1}; ! Layer 4

OS:Construction,
  {1c77a93a-af51-43fa-854b-97e69df1df5a}, ! Handle
  ASHRAE 90.1-2004 ExtWall Mass ClimateZone alt-res 7, ! Name
  {db164376-1e62-4444-9016-f432ed8f6413}, ! Surface Rendering Name
  {22b694ab-8dec-4e10-8978-f4b6d74171a8}, ! Layer 1
  {416edaca-1fca-4701-8acd-acc03d152726}, ! Layer 2
  {b7704482-e728-4439-956d-c12b8f044828}, ! Layer 3
  {41e078c2-9f13-40c1-9fa1-35f0c3a9c3e1}; ! Layer 4

OS:Construction,
  {5cc80cd1-18f6-4ff5-af5e-a25718c69168}, ! Handle
  ASHRAE 90.1-2004 ExtWall Mass ClimateZone alt-res 8, ! Name
  {512b57e8-aa79-4b0a-b977-771ca01ed348}, ! Surface Rendering Name
  {22b694ab-8dec-4e10-8978-f4b6d74171a8}, ! Layer 1
  {416edaca-1fca-4701-8acd-acc03d152726}, ! Layer 2
  {f35bf890-a132-4692-8f31-99de683a2db9}, ! Layer 3
  {41e078c2-9f13-40c1-9fa1-35f0c3a9c3e1}; ! Layer 4

OS:Construction,
  {5cda4810-69db-4e8e-bb44-8d4999e308f3}, ! Handle
  ASHRAE 90.1-2004 ExtWall Metal ClimateZone 1, ! Name
  {aab38a27-e74c-45e2-a2bd-b21fe31063f4}, ! Surface Rendering Name
  {9b30a9f6-9d12-4bbb-8332-f344cbc97cdf}, ! Layer 1
  {41e078c2-9f13-40c1-9fa1-35f0c3a9c3e1}; ! Layer 2

OS:Construction,
  {1f295625-f185-49c0-a1bf-be8352d3dbdb}, ! Handle
  ASHRAE 90.1-2004 ExtWall Metal ClimateZone 2-3, ! Name
  {98441f25-2e45-453f-9e07-13cb51d1e892}, ! Surface Rendering Name
  {9b30a9f6-9d12-4bbb-8332-f344cbc97cdf}, ! Layer 1
  {7665d5c4-bb14-4691-9162-0b2fbc342713}, ! Layer 2
  {41e078c2-9f13-40c1-9fa1-35f0c3a9c3e1}; ! Layer 3

OS:Construction,
  {6da831a3-7b93-4a45-86d6-19efd53edf2d}, ! Handle
  ASHRAE 90.1-2004 ExtWall Metal ClimateZone 4, ! Name
  {dcebc79c-710c-443d-9f09-07d68d3abc32}, ! Surface Rendering Name
  {9b30a9f6-9d12-4bbb-8332-f344cbc97cdf}, ! Layer 1
  {5523c1e2-000a-469b-a283-483cc2770300}, ! Layer 2
  {41e078c2-9f13-40c1-9fa1-35f0c3a9c3e1}; ! Layer 3

OS:Construction,
  {9719602e-1f49-4acb-a105-29e42d606b41}, ! Handle
  ASHRAE 90.1-2004 ExtWall Metal ClimateZone 5, ! Name
  {5b4dccd0-0fed-47e0-a551-f771dd35f298}, ! Surface Rendering Name
  {9b30a9f6-9d12-4bbb-8332-f344cbc97cdf}, ! Layer 1
  {2f81e8dc-91f9-4d10-9110-bab77e8c6887}, ! Layer 2
  {41e078c2-9f13-40c1-9fa1-35f0c3a9c3e1}; ! Layer 3

OS:Construction,
  {ce8ea21d-b095-4e59-b404-1914f861c07b}, ! Handle
  ASHRAE 90.1-2004 ExtWall Metal ClimateZone 6-8, ! Name
  {322344a5-0819-49d4-b9b8-1a443e9741a8}, ! Surface Rendering Name