
OS:Version,
  {45c75e88-1af6-401f-80fb-654b6f6c5ca7}, !- Handle
  1.2.3;                                  !- Version Identifier

OS:Construction,
  {2ff92db8-47d8-4df2-b951-7fab893ecb41}, !- Handle
  ASHRAE 189.1-2009 AtticFloor ClimateZone 1-8, !- Name
  ,                                       !- Surface Rendering Name
  {634070c2-2a69-4eb9-a6e0-41524c6465d8}, !- Layer 1
  {cff2d1e1-8e32-4d5d-b7b5-1f1f365ad896}, !- Layer 2
  {634070c2-2a69-4eb9-a6e0-41524c6465d8}; !- Layer 3

OS:StandardsInformation:Construction,
  {406e3210-8571-4cef-b9ba-deb7e2421f4b}, !- Handle
  {2ff92db8-47d8-4df2-b951-7fab893ecb41}, !- Construction Name
  AtticFloor,                             !- Intended Surface Type
  WoodFramed;                             !- Standards Construction Type

OS:Material,
  {634070c2-2a69-4eb9-a6e0-41524c6465d8}, !- Handle
  1/2IN Gypsum,                           !- Name
  Smooth,                                 !- Roughness
  0.0127,                                 !- Thickness {m}
  0.16,                                   !- Conductivity {W/m-K}
  784.9,                                  !- Density {kg/m3}
  830.000000000001,                       !- Specific Heat {J/kg-K}
  0.9,                                    !- Thermal Absorptance
  0.92,                                   !- Solar Absorptance
  0.92;                                   !- Visible Absorptance

OS:Material,
  {cff2d1e1-8e32-4d5d-b7b5-1f1f365ad896}, !- Handle
  AtticFloor Insulation,                  !- Name
  MediumRough,                            !- Roughness
  0.2379,                                 !- Thickness {m}
  0.049,                                  !- Conductivity {W/m-K}
  265,                                    !- Density {kg/m3}
  836.800000000001,                       !- Specific Heat {J/kg-K}
  0.9,                                    !- Thermal Absorptance
  0.7,                                    !- Solar Absorptance
  0.7;                                    !- Visible Absorptance

OS:Construction,
  {61fa9851-d44b-4e4c-b67c-9ba0b4968d6a}, !- Handle
  ASHRAE 189.1-2009 ExtRoof IEAD ClimateZone 1, !- Name
  ,                                       !- Surface Rendering Name
  {8a9b7248-1d0a-4eed-9581-9c39dc13f5ff}, !- Layer 1
  {e3d0bc45-62b6-4282-a602-1f2cb0424c78}, !- Layer 2
  {c2cb0035-03dc-4c08-be51-8dab5b6d84dd}; !- Layer 3

OS:StandardsInformation:Construction,
  {9210a22c-b491-47d2-94cb-1182ad079c4c}, !- Handle
  {61fa9851-d44b-4e4c-b67c-9ba0b4968d6a}, !- Construction Name
  ExteriorRoof,                           !- Intended Surface Type
  IEAD;                                   !- Standards Construction Type

OS:Material,
  {8a9b7248-1d0a-4eed-9581-9c39dc13f5ff}, !- Handle
  Roof Membrane,                          !- Name
  VeryRough,                              !- Roughness
  0.0095,                                 !- Thickness {m}
  0.16,                                   !- Conductivity {W/m-K}
  1121.29,                                !- Density {kg/m3}
  1460,                                   !- Specific Heat {J/kg-K}
  0.9,                                    !- Thermal Absorptance
  0.7,                                    !- Solar Absorptance
  0.7;                                    !- Visible Absorptance

OS:Material,
  {e3d0bc45-62b6-4282-a602-1f2cb0424c78}, !- Handle
  Roof Insulation [18],                   !- Name
  MediumRough,                            !- Roughness
  0.1693,                                 !- Thickness {m}
  0.049,                                  !- Conductivity {W/m-K}
  265,                                    !- Density {kg/m3}
  836.800000000001,                       !- Specific Heat {J/kg-K}
  0.9,                                    !- Thermal Absorptance
  0.7,                                    !- Solar Absorptance
  0.7;                                    !- Visible Absorptance

OS:Material,
  {c2cb0035-03dc-4c08-be51-8dab5b6d84dd}, !- Handle
  Metal Decking,                          !- Name
  MediumSmooth,                           !- Roughness
  0.0015,                                 !- Thickness {m}
  45.006,                                 !- Conductivity {W/m-K}
  7680,                                   !- Density {kg/m3}
  418.4,                                  !- Specific Heat {J/kg-K}
  0.9,                                    !- Thermal Absorptance
  0.7,                                    !- Solar Absorptance
  0.3;                                    !- Visible Absorptance

OS:Construction,
  {b349de91-7f13-4fa3-b79b-7b603d2a3a0c}, !- Handle
  ASHRAE 189.1-2009 ExtRoof IEAD ClimateZone 2-5, !- Name
  ,                                       !- Surface Rendering Name
  {8a9b7248-1d0a-4eed-9581-9c39dc13f5ff}, !- Layer 1
  {ae23c998-9205-478b-939b-382db32b77eb}, !- Layer 2
  {c2cb0035-03dc-4c08-be51-8dab5b6d84dd}; !- Layer 3

OS:StandardsInformation:Construction,
  {0ca68ce8-850a-41f2-9ac9-d93b0b0d8444}, !- Handle
  {b349de91-7f13-4fa3-b79b-7b603d2a3a0c}, !- Construction Name
  ExteriorRoof,                           !- Intended Surface Type
  IEAD;                                   !- Standards Construction Type

OS:Material,
  {ae23c998-9205-478b-939b-382db32b77eb}, !- Handle
  Roof Insulation [21],                   !- Name
  MediumRough,                            !- Roughness
  0.2105,                                 !- Thickness {m}
  0.049,                                  !- Conductivity {W/m-K}
  265,                                    !- Density {kg/m3}
  836.800000000001,                       !- Specific Heat {J/kg-K}
  0.9,                                    !- Thermal Absorptance
  0.7,                                    !- Solar Absorptance
  0.7;                                    !- Visible Absorptance

OS:Construction,
  {5c5e0add-11ac-4725-960e-98db3dd5c3cd}, !- Handle
  ASHRAE 189.1-2009 ExtRoof IEAD ClimateZone 6, !- Name
  ,                                       !- Surface Rendering Name
  {8a9b7248-1d0a-4eed-9581-9c39dc13f5ff}, !- Layer 1
  {50560f1f-35f8-4884-a1ad-887d948b28eb}, !- Layer 2
  {c2cb0035-03dc-4c08-be51-8dab5b6d84dd}; !- Layer 3

OS:StandardsInformation:Construction,
  {8327d256-04f9-4c84-864e-81ea6a9e42ad}, !- Handle
  {5c5e0add-11ac-4725-960e-98db3dd5c3cd}, !- Construction Name
  ExteriorRoof,                           !- Intended Surface Type
  IEAD;                                   !- Standards Construction Type

OS:Material,
  {50560f1f-35f8-4884-a1ad-887d948b28eb}, !- Handle
  Roof Insulation [24],                   !- Name
  MediumRough,                            !- Roughness
  0.260100000000001,                      !- Thickness {m}
  0.049,                                  !- Conductivity {W/m-K}
  265,                                    !- Density {kg/m3}
  836.800000000001,                       !- Specific Heat {J/kg-K}
  0.9,                                    !- Thermal Absorptance
  0.7,                                    !- Solar Absorptance
  0.7;                                    !- Visible Absorptance

OS:Construction,
  {4ec5a572-f65a-4b81-b666-7a1847f87c94}, !- Handle
  ASHRAE 189.1-2009 ExtRoof IEAD ClimateZone 7-8, !- Name
  ,                                       !- Surface Rendering Name
  {8a9b7248-1d0a-4eed-9581-9c39dc13f5ff}, !- Layer 1
  {f3b82678-b3aa-4266-85e5-41160fd286a0}, !- Layer 2
  {c2cb0035-03dc-4c08-be51-8dab5b6d84dd}; !- Layer 3

OS:StandardsInformation:Construction,
  {1a3e348e-5aee-44bb-a48e-e7647ebbe242}, !- Handle
  {4ec5a572-f65a-4b81-b666-7a1847f87c94}, !- Construction Name
  ExteriorRoof,                           !- Intended Surface Type
  IEAD;                                   !- Standards Construction Type

OS:Material,
  {f3b82678-b3aa-4266-85e5-41160fd286a0}, !- Handle
  Roof Insulation [26],                   !- Name
  MediumRough,                            !- Roughness
  0.2941,                                 !- Thickness {m}
  0.049,                                  !- Conductivity {W/m-K}
  265,                                    !- Density {kg/m3}
  836.800000000001,                       !- Specific Heat {J/kg-K}
  0.9,                                    !- Thermal Absorptance
  0.7,                                    !- Solar Absorptance
  0.7;                                    !- Visible Absorptance

OS:Construction,
  {9d856839-5492-4c17-99c7-c6173e43e843}, !- Handle
  ASHRAE 189.1-2009 ExtRoof Metal ClimateZone 1, !- Name
  ,                                       !- Surface Rendering Name
  {f111ff55-7adc-4515-84cc-f69314b24e51}, !- Layer 1
  {c63a80eb-cdc7-4751-abbc-8eddd53b77d7}; !- Layer 2

OS:StandardsInformation:Construction,
  {65daaf75-785f-442a-973c-8bd36fb926af}, !- Handle
  {9d856839-5492-4c17-99c7-c6173e43e843}, !- Construction Name
  ExteriorRoof,                           !- Intended Surface Type
  Metal;                                  !- Standards Construction Type

OS:Material,
  {f111ff55-7adc-4515-84cc-f69314b24e51}, !- Handle
  Metal Roofing,                          !- Name
  MediumSmooth,                           !- Roughness
  0.0015,                                 !- Thickness {m}
  45.006,                                 !- Conductivity {W/m-K}
  7680,                                   !- Density {kg/m3}
  418.4,                                  !- Specific Heat {J/kg-K}
  0.9,                                    !- Thermal Absorptance
  0.3,                                    !- Solar Absorptance
  0.3;                                    !- Visible Absorptance

OS:Material,
  {c63a80eb-cdc7-4751-abbc-8eddd53b77d7}, !- Handle
  Roof Insulation [19],                   !- Name
  MediumRough,                            !- Roughness
  0.1868,                                 !- Thickness {m}
  0.049,                                  !- Conductivity {W/m-K}
  265,                                    !- Density {kg/m3}
  836.800000000001,                       !- Specific Heat {J/kg-K}
  0.9,                                    !- Thermal Absorptance
  0.7,                                    !- Solar Absorptance
  0.7;                                    !- Visible Absorptance

OS:Construction,
  {3352ddc9-63a4-4d6b-a117-d37786e4f625}, !- Handle
  ASHRAE 189.1-2009 ExtRoof Metal ClimateZone 2-5, !- Name
  ,                                       !- Surface Rendering Name
  {f111ff55-7adc-4515-84cc-f69314b24e51}, !- Layer 1
  {e4297f09-b3f8-41b2-93b6-e31f149793be}; !- Layer 2

OS:StandardsInformation:Construction,
  {081ae5d5-a6d3-4e54-90d6-c4156c97fb62}, !- Handle
  {3352ddc9-63a4-4d6b-a117-d37786e4f625}, !- Construction Name
  ExteriorRoof,                           !- Intended Surface Type
  Metal;                                  !- Standards Construction Type

OS:Material,
  {e4297f09-b3f8-41b2-93b6-e31f149793be}, !- Handle
  Roof Insulation [22],                   !- Name
  MediumRough,                            !- Roughness
  0.2358,                                 !- Thickness {m}
  0.049,                                  !- Conductivity {W/m-K}
  265,                                    !- Density {kg/m3}
  836.800000000001,                       !- Specific Heat {J/kg-K}
  0.9,                                    !- Thermal Absorptance
  0.7,                                    !- Solar Absorptance
  0.7;                                    !- Visible Absorptance

OS:Construction,
  {5dc7d560-e729-4eea-8ff3-a9208a73ee2b}, !- Handle
  ASHRAE 189.1-2009 ExtRoof Metal ClimateZone 6, !- Name
  ,                                       !- Surface Rendering Name
  {f111ff55-7adc-4515-84cc-f69314b24e51}, !- Layer 1
  {7106eca0-0c0b-41c8-8cc5-a693c4ab7654}; !- Layer 2

OS:StandardsInformation:Construction,
  {9ee87346-3c5f-4fb0-9363-c8e22ea923a3}, !- Handle
  {5dc7d560-e729-4eea-8ff3-a9208a73ee2b}, !- Construction Name
  ExteriorRoof,                           !- Intended Surface Type
  Metal;                                  !- Standards Construction Type

OS:Material,
  {7106eca0-0c0b-41c8-8cc5-a693c4ab7654}, !- Handle
  Roof Insulation [25],                   !- Name
  MediumRough,                            !- Roughness
  0.263,                                  !- Thickness {m}
  0.049,                                  !- Conductivity {W/m-K}
  265,                                    !- Density {kg/m3}
  836.800000000001,                       !- Specific Heat {J/kg-K}
  0.9,                                    !- Thermal Absorptance
  0.7,                                    !- Solar Absorptance
  0.7;                                    !- Visible Absorptance

OS:Construction,
  {7a7180f2-ecd4-4edb-b52c-f0e86c5dc880}, !- Handle
  ASHRAE 189.1-2009 ExtRoof Metal ClimateZone 7-8, !- Name
  ,                                       !- Surface Rendering Name
  {f111ff55-7adc-4515-84cc-f69314b24e51}, !- Layer 1
  {ad11d632-913c-4d87-aea1-2fdc3a272ea8}; !- Layer 2

OS:StandardsInformation:Construction,
  {664da294-11b0-4f9b-b6b1-2b67e1d14b33}, !- Handle
  {7a7180f2-ecd4-4edb-b52c-f0e86c5dc880}, !- Construction Name
  ExteriorRoof,                           !- Intended Surface Type
  Metal;                                  !- Standards Construction Type

OS:Material,
  {ad11d632-913c-4d87-aea1-2fdc3a272ea8}, !- Handle
  Roof Insulation [27],                   !- Name
  MediumRough,                            !- Roughness
  0.297000000000001,                      !- Thickness {m}
  0.049,                                  !- Conductivity {W/m-K}
  265,                                    !- Density {kg/m3}
  836.800000000001,                       !- Specific Heat {J/kg-K}
  0.9,                                    !- Thermal Absorptance
  0.7,                                    !- Solar Absorptance
  0.7;                                    !- Visible Absorptance

OS:Construction,
  {0da67975-c40c-47c1-a593-2633db4428d0}, !- Handle
  ASHRAE 189.1-2009 ExtWall Mass ClimateZone 1, !- Name
  ,                                       !- Surface Rendering Name
  {2004c238-b9a6-49a2-b314-d6cc18e8ea91}, !- Layer 1
  {b7a97c7f-b510-4082-a1ef-a4feaa1d8a36}, !- Layer 2
  {28d56af0-f86c-484e-b46e-5764226a4a82}, !- Layer 3
  {634070c2-2a69-4eb9-a6e0-41524c6465d8}; !- Layer 4

OS:StandardsInformation:Construction,
  {fc84832d-e9ba-4b07-adb1-ab5bc99bae67}, !- Handle
  {0da67975-c40c-47c1-a593-2633db4428d0}, !- Construction Name
  ExteriorWall,                           !- Intended Surface Type
  Mass;                                   !- Standards Construction Type

OS:Material,
  {2004c238-b9a6-49a2-b314-d6cc18e8ea91}, !- Handle
  1IN Stucco,                             !- Name
  Smooth,                                 !- Roughness
  0.0253,                                 !- Thickness {m}
  0.691799999999999,                      !- Conductivity {W/m-K}
  1858,                                   !- Density {kg/m3}
  836.999999999999,                       !- Specific Heat {J/kg-K}
  0.9,                                    !- Thermal Absorptance
  0.92,                                   !- Solar Absorptance
  0.92;                                   !- Visible Absorptance

OS:Material,
  {b7a97c7f-b510-4082-a1ef-a4feaa1d8a36}, !- Handle
  8IN Concrete HW,                        !- Name
  MediumRough,                            !- Roughness
  0.2033,                                 !- Thickness {m}
  1.72959999999999,                       !- Conductivity {W/m-K}
  2242.99999999999,                       !- Density {kg/m3}
  836.999999999999,                       !- Specific Heat {J/kg-K}
  0.9,                                    !- Thermal Absorptance
  0.65,                                   !- Solar Absorptance
  0.65;                                   !- Visible Absorptance

OS:Material,
  {28d56af0-f86c-484e-b46e-5764226a4a82}, !- Handle
  Wall Insulation [31],                   !- Name
  MediumRough,                            !- Roughness
  0.0337000000000001,                     !- Thickness {m}
  0.0432,                                 !- Conductivity {W/m-K}
  91,                                     !- Density {kg/m3}
  836.999999999999,                       !- Specific Heat {J/kg-K}
  0.9,                                    !- Thermal Absorptance
  0.5,                                    !- Solar Absorptance
  0.5;                                    !- Visible Absorptance

OS:Construction,
  {74238e50-36a1-465b-bc65-7c8fe11f80ee}, !- Handle
  ASHRAE 189.1-2009 ExtWall Mass ClimateZone 2, !- Name
  ,                                       !- Surface Rendering Name
  {2004c238-b9a6-49a2-b314-d6cc18e8ea91}, !- Layer 1
  {b7a97c7f-b510-4082-a1ef-a4feaa1d8a36}, !- Layer 2
  {14691690-f2c2-4db3-ae56-3e5ee39be1c9}, !- Layer 3
  {634070c2-2a69-4eb9-a6e0-41524c6465d8}; !- Layer 4

OS:StandardsInformation:Construction,
  {30463786-ccfe-4e28-91de-9253e30d40d7}, !- Handle
  {74238e50-36a1-465b-bc65-7c8fe11f80ee}, !- Construction Name
  ExteriorWall,                           !- Intended Surface Type
  Mass;                                   !- Standards Construction Type

OS:Material,
  {14691690-f2c2-4db3-ae56-3e5ee39be1c9}, !- Handle
  Wall Insulation [35],                   !- Name
  MediumRough,                            !- Roughness
  0.0452,                                 !- Thickness {m}
  0.0432,                                 !- Conductivity {W/m-K}
  91,                                     !- Density {kg/m3}
  836.999999999999,                       !- Specific Heat {J/kg-K}
  0.9,                                    !- Thermal Absorptance
  0.5,                                    !- Solar Absorptance
  0.5;                                    !- Visible Absorptance

OS:Construction,
  {77645694-cbd0-449a-90a9-8ec92f14a26c}, !- Handle
  ASHRAE 189.1-2009 ExtWall Mass ClimateZone 3, !- Name
  ,                                       !- Surface Rendering Name
  {2004c238-b9a6-49a2-b314-d6cc18e8ea91}, !- Layer 1
  {b7a97c7f-b510-4082-a1ef-a4feaa1d8a36}, !- Layer 2
  {c9d4cf55-0681-45dc-9f30-e19221249f10}, !- Layer 3
  {634070c2-2a69-4eb9-a6e0-41524c6465d8}; !- Layer 4

OS:StandardsInformation:Construction,
  {15c153fc-e686-4e0f-83ba-979aa5e2bd21}, !- Handle
  {77645694-cbd0-449a-90a9-8ec92f14a26c}, !- Construction Name
  ExteriorWall,                           !- Intended Surface Type
  Mass;                                   !- Standards Construction Type

OS:Material,
  {c9d4cf55-0681-45dc-9f30-e19221249f10}, !- Handle
  Wall Insulation [36],                   !- Name
  MediumRough,                            !- Roughness
  0.0565999999999999,                     !- Thickness {m}
  0.0432,                                 !- Conductivity {W/m-K}
  91,                                     !- Density {kg/m3}
  836.999999999999,                       !- Specific Heat {J/kg-K}
  0.9,                                    !- Thermal Absorptance
  0.5,                                    !- Solar Absorptance
  0.5;                                    !- Visible Absorptance

OS:Construction,
  {4ef3a46a-5bb2-4493-b21c-c9a1300bad5a}, !- Handle
  ASHRAE 189.1-2009 ExtWall Mass ClimateZone 4, !- Name
  ,                                       !- Surface Rendering Name
  {2004c238-b9a6-49a2-b314-d6cc18e8ea91}, !- Layer 1
  {b7a97c7f-b510-4082-a1ef-a4feaa1d8a36}, !- Layer 2
  {be7d9623-ba01-43c5-9c19-fb05c38039ed}, !- Layer 3
  {634070c2-2a69-4eb9-a6e0-41524c6465d8}; !- Layer 4

OS:StandardsInformation:Construction,
  {f8d53511-b060-45dd-aec2-9b058faf45ac}, !- Handle
  {4ef3a46a-5bb2-4493-b21c-c9a1300bad5a}, !- Construction Name
  ExteriorWall,                           !- Intended Surface Type
  Mass;                                   !- Standards Construction Type

OS:Material,
  {be7d9623-ba01-43c5-9c19-fb05c38039ed}, !- Handle
  Wall Insulation [37],                   !- Name
  MediumRough,                            !- Roughness
  0.0680999999999999,                     !- Thickness {m}
  0.0432,                                 !- Conductivity {W/m-K}
  91,                                     !- Density {kg/m3}
  836.999999999999,                       !- Specific Heat {J/kg-K}
  0.9,                                    !- Thermal Absorptance
  0.5,                                    !- Solar Absorptance
  0.5;                                    !- Visible Absorptance

OS:Construction,
  {8efb32c9-5e03-4f3d-bc15-cbd1ccf1a7b4}, !- Handle
  ASHRAE 189.1-2009 ExtWall Mass ClimateZone 5, !- Name
  ,                                       !- Surface Rendering Name
  {2004c238-b9a6-49a2-b314-d6cc18e8ea91}, !- Layer 1
  {b7a97c7f-b510-4082-a1ef-a4feaa1d8a36}, !- Layer 2
  {06b5d36a-554b-41b8-8126-8bc04b771150}, !- Layer 3
  {634070c2-2a69-4eb9-a6e0-41524c6465d8}; !- Layer 4

OS:StandardsInformation:Construction,
  {4b807f9f-6509-4f8a-9778-810894af5395}, !- Handle
  {8efb32c9-5e03-4f3d-bc15-cbd1ccf1a7b4}, !- Construction Name
  ExteriorWall,                           !- Intended Surface Type
  Mass;                                   !- Standards Construction Type

OS:Material,
  {06b5d36a-554b-41b8-8126-8bc04b771150}, !- Handle
  Wall Insulation [40],                   !- Name
  MediumRough,                            !- Roughness
  0.0793999999999999,                     !- Thickness {m}
  0.0432,                                 !- Conductivity {W/m-K}
  91,                                     !- Density {kg/m3}
  836.999999999999,                       !- Specific Heat {J/kg-K}
  0.9,                                    !- Thermal Absorptance
  0.5,                                    !- Solar Absorptance
  0.5;                                    !- Visible Absorptance

OS:Construction,
  {8b498493-2345-4a39-9a16-5d88f123703f}, !- Handle
  ASHRAE 189.1-2009 ExtWall Mass ClimateZone 6, !- Name
  ,                                       !- Surface Rendering Name
  {2004c238-b9a6-49a2-b314-d6cc18e8ea91}, !- Layer 1
  {b7a97c7f-b510-4082-a1ef-a4feaa1d8a36}, !- Layer 2
  {855cec80-cf6a-44b3-9a4c-70621b691288}, !- Layer 3
  {634070c2-2a69-4eb9-a6e0-41524c6465d8}; !- Layer 4

OS:StandardsInformation:Construction,
  {6c2a29f4-8f49-47f6-8e8e-5ebe4cb1159c}, !- Handle
  {8b498493-2345-4a39-9a16-5d88f123703f}, !- Construction Name
  ExteriorWall,                           !- Intended Surface Type
  Mass;                                   !- Standards Construction Type

OS:Material,
  {855cec80-cf6a-44b3-9a4c-70621b691288}, !- Handle
  Wall Insulation [42],                   !- Name
  MediumRough,                            !- Roughness
  0.0913999999999999,                     !- Thickness {m}
  0.0432,                                 !- Conductivity {W/m-K}
  91,                                     !- Density {kg/m3}
  836.999999999999,                       !- Specific Heat {J/kg-K}
  0.9,                                    !- Thermal Absorptance
  0.5,                                    !- Solar Absorptance
  0.5;                                    !- Visible Absorptance

OS:Construction,
  {abbe86f8-1a96-4360-9e6f-57cfd38c2585}, !- Handle
  ASHRAE 189.1-2009 ExtWall Mass ClimateZone 7-8, !- Name
  ,                                       !- Surface Rendering Name
  {2004c238-b9a6-49a2-b314-d6cc18e8ea91}, !- Layer 1
  {b7a97c7f-b510-4082-a1ef-a4feaa1d8a36}, !- Layer 2
  {fe51d708-7080-4ec3-9964-01f85bd2b890}, !- Layer 3
  {634070c2-2a69-4eb9-a6e0-41524c6465d8}; !- Layer 4

OS:StandardsInformation:Construction,
  {6ed2956a-0b39-4862-83cb-bfb5d240b36b}, !- Handle
  {abbe86f8-1a96-4360-9e6f-57cfd38c2585}, !- Construction Name
  ExteriorWall,                           !- Intended Surface Type
  Mass;                                   !- Standards Construction Type

OS:Material,
  {fe51d708-7080-4ec3-9964-01f85bd2b890}, !- Handle
  Wall Insulation [44],                   !- Name
  MediumRough,                            !- Roughness
  0.1104,                                 !- Thickness {m}
  0.0432,                                 !- Conductivity {W/m-K}
  91,                                     !- Density {kg/m3}
  836.999999999999,                       !- Specific Heat {J/kg-K}
  0.9,                                    !- Thermal Absorptance
  0.5,                                    !- Solar Absorptance
  0.5;                                    !- Visible Absorptance

OS:Construction,
  {e500e000-dec2-4a68-9725-295e0ecaad92}, !- Handle
  ASHRAE 189.1-2009 ExtWall Mass ClimateZone alt-res 1, !- Name
  ,                                       !- Surface Rendering Name
  {2004c238-b9a6-49a2-b314-d6cc18e8ea91}, !- Layer 1
  {b7a97c7f-b510-4082-a1ef-a4feaa1d8a36}, !- Layer 2
  {14691690-f2c2-4db3-ae56-3e5ee39be1c9}, !- Layer 3
  {634070c2-2a69-4eb9-a6e0-41524c6465d8}; !- Layer 4

OS:StandardsInformation:Construction,
  {b22431b1-3574-490b-a311-498f98fb0955}, !- Handle
  {e500e000-dec2-4a68-9725-295e0ecaad92}, !- Construction Name
  ExteriorWall,                           !- Intended Surface Type
  Mass;                                   !- Standards Construction Type

OS:Construction,
  {21d5a90f-db92-4a8a-8bff-3923bf8dc8ef}, !- Handle
  ASHRAE 189.1-2009 ExtWall Mass ClimateZone alt-res 2, !- Name
  ,                                       !- Surface Rendering Name
  {2004c238-b9a6-49a2-b314-d6cc18e8ea91}, !- Layer 1
  {b7a97c7f-b510-4082-a1ef-a4feaa1d8a36}, !- Layer 2
  {c9d4cf55-0681-45dc-9f30-e19221249f10}, !- Layer 3
  {634070c2-2a69-4eb9-a6e0-41524c6465d8}; !- Layer 4

OS:StandardsInformation:Construction,
  {5335a015-e8b8-454a-9146-6646c96eef92}, !- Handle
  {21d5a90f-db92-4a8a-8bff-3923bf8dc8ef}, !- Construction Name
  ExteriorWall,                           !- Intended Surface Type
  Mass;                                   !- Standards Construction Type

OS:Construction,
  {df6d987f-bbd9-426a-8e55-59ee4401ca22}, !- Handle
  ASHRAE 189.1-2009 ExtWall Mass ClimateZone alt-res 3, !- Name
  ,                                       !- Surface Rendering Name
  {2004c238-b9a6-49a2-b314-d6cc18e8ea91}, !- Layer 1
  {b7a97c7f-b510-4082-a1ef-a4feaa1d8a36}, !- Layer 2
  {be7d9623-ba01-43c5-9c19-fb05c38039ed}, !- Layer 3
  {634070c2-2a69-4eb9-a6e0-41524c6465d8}; !- Layer 4

OS:StandardsInformation:Construction,
  {5cfd7305-ad6b-4689-9673-b7871287d1ec}, !- Handle
  {df6d987f-bbd9-426a-8e55-59ee4401ca22}, !- Construction Name
  ExteriorWall,                           !- Intended Surface Type
  Mass;                                   !- Standards Construction Type

OS:Construction,
  {273cc927-41f2-42cc-a7f5-8cb6adbe5b07}, !- Handle
  ASHRAE 189.1-2009 ExtWall Mass ClimateZone alt-res 4, !- Name
  ,                                       !- Surface Rendering Name
  {2004c238-b9a6-49a2-b314-d6cc18e8ea91}, !- Layer 1
  {b7a97c7f-b510-4082-a1ef-a4feaa1d8a36}, !- Layer 2
  {06b5d36a-554b-41b8-8126-8bc04b771150}, !- Layer 3
  {634070c2-2a69-4eb9-a6e0-41524c6465d8}; !- Layer 4

OS:StandardsInformation:Construction,
  {4dae1262-92ff-4219-bbe7-6c0db03269c0}, !- Handle
  {273cc927-41f2-42cc-a7f5-8cb6adbe5b07}, !- Construction Name
  ExteriorWall,                           !- Intended Surface Type
  Mass;                                   !- Standards Construction Type

OS:Construction,
  {1d62555c-e836-4c26-9b10-4f7a051d38bd}, !- Handle
  ASHRAE 189.1-2009 ExtWall Mass ClimateZone alt-res 5, !- Name
  ,                                       !- Surface Rendering Name
  {2004c238-b9a6-49a2-b314-d6cc18e8ea91}, !- Layer 1
  {b7a97c7f-b510-4082-a1ef-a4feaa1d8a36}, !- Layer 2
  {855cec80-cf6a-44b3-9a4c-70621b691288}, !- Layer 3
  {634070c2-2a69-4eb9-a6e0-41524c6465d8}; !- Layer 4

OS:StandardsInformation:Construction,
  {dd3da2df-7a2a-43ff-99c7-da6728d3b3a3}, !- Handle
  {1d62555c-e836-4c26-9b10-4f7a051d38bd}, !- Construction Name
  ExteriorWall,                           !- Intended Surface Type
  Mass;                                   !- Standards Construction Type

OS:Construction,
  {73c2c1aa-8b94-44e3-a4e8-2c3e38a50e41}, !- Handle
  ASHRAE 189.1-2009 ExtWall Mass ClimateZone alt-res 6, !- Name
  ,                                       !- Surface Rendering Name
  {2004c238-b9a6-49a2-b314-d6cc18e8ea91}, !- Layer 1
  {b7a97c7f-b510-4082-a1ef-a4feaa1d8a36}, !- Layer 2
  {fe51d708-7080-4ec3-9964-01f85bd2b890}, !- Layer 3
  {634070c2-2a69-4eb9-a6e0-41524c6465d8}; !- Layer 4

OS:StandardsInformation:Construction,
  {0d37f091-9aca-463f-806c-e4ceb4789be2}, !- Handle
  {73c2c1aa-8b94-44e3-a4e8-2c3e38a50e41}, !- Construction Name
  ExteriorWall,                           !- Intended Surface Type
  Mass;                                   !- Standards Construction Type

OS:Construction,
  {8c046f81-1422-451c-99bb-3651f633c7bc}, !- Handle
  ASHRAE 189.1-2009 ExtWall Mass ClimateZone alt-res 7, !- Name
  ,                                       !- Surface Rendering Name
  {2004c238-b9a6-49a2-b314-d6cc18e8ea91}, !- Layer 1
  {b7a97c7f-b510-4082-a1ef-a4feaa1d8a36}, !- Layer 2
  {fe51d708-7080-4ec3-9964-01f85bd2b890}, !- Layer 3
  {634070c2-2a69-4eb9-a6e0-41524c6465d8}; !- Layer 4

OS:StandardsInformation:Construction,
  {acbfca1a-8e55-4e61-a9e9-641bdb075bfc}, !- Handle
  {8c046f81-1422-451c-99bb-3651f633c7bc}, !- Construction Name
  ExteriorWall,                           !- Intended Surface Type
  Mass;                                   !- Standards Construction Type

OS:Construction,
  {04cd102a-a744-4e67-8688-9982696fb4af}, !- Handle
  ASHRAE 189.1-2009 ExtWall Mass ClimateZone alt-res 8, !- Name