
OS:Version,
  {0a6e7990-e387-4a54-9363-4ebc7229da30}, !- Handle
  2.3.0;                                  !- Version Identifier

OS:Construction,
  {1f60c951-176e-4e2e-ba99-20cde26be706}, !- Handle
  ASHRAE 189.1-2009 AtticFloor ClimateZone 1-8, !- Name
  ,                                       !- Surface Rendering Name
  {d765f09e-b05c-47f6-9918-9584555cc9b9}, !- Layer 1
  {752122aa-61ef-47b7-9b5e-c18cb36eac49}, !- Layer 2
  {d765f09e-b05c-47f6-9918-9584555cc9b9}; !- Layer 3

OS:StandardsInformation:Construction,
  {34265a3f-8743-4329-9b3b-d0fd81c89dad}, !- Handle
  {1f60c951-176e-4e2e-ba99-20cde26be706}, !- Construction Name
  AtticFloor,                             !- Intended Surface Type
  WoodFramed,                             !- Standards Construction Type
  ,                                       !- Perturbable Layer
  ,                                       !- Perturbable Layer Type
  ,                                       !- Other Perturbable Layer Type
  ASHRAE 189.1-2009;                      !- Construction Standard

OS:Material,
  {d765f09e-b05c-47f6-9918-9584555cc9b9}, !- Handle
  1/2IN Gypsum,                           !- Name
  Smooth,                                 !- Roughness
  0.0127,                                 !- Thickness {m}
  0.16,                                   !- Conductivity {W/m-K}
  784.9,                                  !- Density {kg/m3}
  830.000000000001,                       !- Specific Heat {J/kg-K}
  0.9,                                    !- Thermal Absorptance
  0.4,                                    !- Solar Absorptance
  0.4;                                    !- Visible Absorptance

OS:StandardsInformation:Material,
  {de8d396c-bc07-4823-87b6-154620f93e50}, !- Handle
  {d765f09e-b05c-47f6-9918-9584555cc9b9}; !- Material Name

OS:Material,
  {752122aa-61ef-47b7-9b5e-c18cb36eac49}, !- Handle
  AtticFloor Insulation,                  !- Name
  MediumRough,                            !- Roughness
  0.2379,                                 !- Thickness {m}
  0.049,                                  !- Conductivity {W/m-K}
  265,                                    !- Density {kg/m3}
  836.800000000001,                       !- Specific Heat {J/kg-K}
  0.9,                                    !- Thermal Absorptance
  0.7,                                    !- Solar Absorptance
  0.7;                                    !- Visible Absorptance

OS:StandardsInformation:Material,
  {60b0df4c-a37c-4750-ac9a-5fc892dcd1a8}, !- Handle
  {752122aa-61ef-47b7-9b5e-c18cb36eac49}; !- Material Name

OS:Construction,
  {01e56662-3eee-4623-b2ff-740521328c0a}, !- Handle
  ASHRAE 189.1-2009 ExtRoof IEAD ClimateZone 1, !- Name
  ,                                       !- Surface Rendering Name
  {28af5506-5825-445f-b274-48013a204d76}, !- Layer 1
  {81d98b58-e5b4-41b5-ab2c-16ddc35da5e2}, !- Layer 2
  {71415636-5e82-4ff7-860f-80ee16125540}; !- Layer 3

OS:StandardsInformation:Construction,
  {052be208-57dd-4c00-b97e-208ea9f97f1e}, !- Handle
  {01e56662-3eee-4623-b2ff-740521328c0a}, !- Construction Name
  ExteriorRoof,                           !- Intended Surface Type
  IEAD,                                   !- Standards Construction Type
  ,                                       !- Perturbable Layer
  ,                                       !- Perturbable Layer Type
  ,                                       !- Other Perturbable Layer Type
  ASHRAE 189.1-2009;                      !- Construction Standard

OS:Material,
  {28af5506-5825-445f-b274-48013a204d76}, !- Handle
  Roof Membrane,                          !- Name
  VeryRough,                              !- Roughness
  0.0095,                                 !- Thickness {m}
  0.16,                                   !- Conductivity {W/m-K}
  1121.29,                                !- Density {kg/m3}
  1460,                                   !- Specific Heat {J/kg-K}
  0.9,                                    !- Thermal Absorptance
  0.7,                                    !- Solar Absorptance
  0.7;                                    !- Visible Absorptance

OS:StandardsInformation:Material,
  {f327c014-bc50-4747-baf6-8ed7ab14e5f3}, !- Handle
  {28af5506-5825-445f-b274-48013a204d76}; !- Material Name

OS:Material,
  {81d98b58-e5b4-41b5-ab2c-16ddc35da5e2}, !- Handle
  Roof Insulation [18],                   !- Name
  MediumRough,                            !- Roughness
  0.1693,                                 !- Thickness {m}
  0.049,                                  !- Conductivity {W/m-K}
  265,                                    !- Density {kg/m3}
  836.800000000001,                       !- Specific Heat {J/kg-K}
  0.9,                                    !- Thermal Absorptance
  0.7,                                    !- Solar Absorptance
  0.7;                                    !- Visible Absorptance

OS:StandardsInformation:Material,
  {0ad26ef0-b793-43cd-900f-1370e4b2f928}, !- Handle
  {81d98b58-e5b4-41b5-ab2c-16ddc35da5e2}; !- Material Name

OS:Material,
  {71415636-5e82-4ff7-860f-80ee16125540}, !- Handle
  Metal Decking,                          !- Name
  MediumSmooth,                           !- Roughness
  0.0015,                                 !- Thickness {m}
  45.006,                                 !- Conductivity {W/m-K}
  7680,                                   !- Density {kg/m3}
  418.4,                                  !- Specific Heat {J/kg-K}
  0.9,                                    !- Thermal Absorptance
  0.6,                                    !- Solar Absorptance
  0.6;                                    !- Visible Absorptance

OS:StandardsInformation:Material,
  {ab4edf31-0852-4edb-903b-f90a419396f2}, !- Handle
  {71415636-5e82-4ff7-860f-80ee16125540}; !- Material Name

OS:Construction,
  {a7f7a9c7-460d-4eb8-b355-6c216e7aa4b8}, !- Handle
  ASHRAE 189.1-2009 ExtRoof IEAD ClimateZone 2-5, !- Name
  ,                                       !- Surface Rendering Name
  {28af5506-5825-445f-b274-48013a204d76}, !- Layer 1
  {edcf73ef-82bd-413a-bcbf-a06e3128986f}, !- Layer 2
  {71415636-5e82-4ff7-860f-80ee16125540}; !- Layer 3

OS:StandardsInformation:Construction,
  {7fe14355-a90e-4267-bf28-2ad00cb0495e}, !- Handle
  {a7f7a9c7-460d-4eb8-b355-6c216e7aa4b8}, !- Construction Name
  ExteriorRoof,                           !- Intended Surface Type
  IEAD,                                   !- Standards Construction Type
  ,                                       !- Perturbable Layer
  ,                                       !- Perturbable Layer Type
  ,                                       !- Other Perturbable Layer Type
  ASHRAE 189.1-2009;                      !- Construction Standard

OS:Material,
  {edcf73ef-82bd-413a-bcbf-a06e3128986f}, !- Handle
  Roof Insulation [21],                   !- Name
  MediumRough,                            !- Roughness
  0.2105,                                 !- Thickness {m}
  0.049,                                  !- Conductivity {W/m-K}
  265,                                    !- Density {kg/m3}
  836.800000000001,                       !- Specific Heat {J/kg-K}
  0.9,                                    !- Thermal Absorptance
  0.7,                                    !- Solar Absorptance
  0.7;                                    !- Visible Absorptance

OS:StandardsInformation:Material,
  {87d025e2-4d16-420f-bc02-0b6b59c29d2b}, !- Handle
  {edcf73ef-82bd-413a-bcbf-a06e3128986f}; !- Material Name

OS:Construction,
  {eb9be676-aa7b-42c9-911b-169a45510b75}, !- Handle
  ASHRAE 189.1-2009 ExtRoof IEAD ClimateZone 6, !- Name
  ,                                       !- Surface Rendering Name
  {28af5506-5825-445f-b274-48013a204d76}, !- Layer 1
  {3235586c-9d8c-4e5b-82c2-7260b954c382}, !- Layer 2
  {71415636-5e82-4ff7-860f-80ee16125540}; !- Layer 3

OS:StandardsInformation:Construction,
  {f22067e3-c097-4ca5-9c90-4fc912a66c3b}, !- Handle
  {eb9be676-aa7b-42c9-911b-169a45510b75}, !- Construction Name
  ExteriorRoof,                           !- Intended Surface Type
  IEAD,                                   !- Standards Construction Type
  ,                                       !- Perturbable Layer
  ,                                       !- Perturbable Layer Type
  ,                                       !- Other Perturbable Layer Type
  ASHRAE 189.1-2009;                      !- Construction Standard

OS:Material,
  {3235586c-9d8c-4e5b-82c2-7260b954c382}, !- Handle
  Roof Insulation [24],                   !- Name
  MediumRough,                            !- Roughness
  0.260100000000001,                      !- Thickness {m}
  0.049,                                  !- Conductivity {W/m-K}
  265,                                    !- Density {kg/m3}
  836.800000000001,                       !- Specific Heat {J/kg-K}
  0.9,                                    !- Thermal Absorptance
  0.7,                                    !- Solar Absorptance
  0.7;                                    !- Visible Absorptance

OS:StandardsInformation:Material,
  {eb97b7e1-8342-463c-b3ed-8bb0214af57c}, !- Handle
  {3235586c-9d8c-4e5b-82c2-7260b954c382}; !- Material Name

OS:Construction,
  {9d5fa502-fbcc-4a9e-b6c6-146a8dd85539}, !- Handle
  ASHRAE 189.1-2009 ExtRoof IEAD ClimateZone 7-8, !- Name
  ,                                       !- Surface Rendering Name
  {28af5506-5825-445f-b274-48013a204d76}, !- Layer 1
  {6c087677-07b2-4d55-97ef-d93c239102db}, !- Layer 2
  {71415636-5e82-4ff7-860f-80ee16125540}; !- Layer 3

OS:StandardsInformation:Construction,
  {3f4921d3-18b7-43fe-b08e-f171dd095d38}, !- Handle
  {9d5fa502-fbcc-4a9e-b6c6-146a8dd85539}, !- Construction Name
  ExteriorRoof,                           !- Intended Surface Type
  IEAD,                                   !- Standards Construction Type
  ,                                       !- Perturbable Layer
  ,                                       !- Perturbable Layer Type
  ,                                       !- Other Perturbable Layer Type
  ASHRAE 189.1-2009;                      !- Construction Standard

OS:Material,
  {6c087677-07b2-4d55-97ef-d93c239102db}, !- Handle
  Roof Insulation [26],                   !- Name
  MediumRough,                            !- Roughness
  0.2941,                                 !- Thickness {m}
  0.049,                                  !- Conductivity {W/m-K}
  265,                                    !- Density {kg/m3}
  836.800000000001,                       !- Specific Heat {J/kg-K}
  0.9,                                    !- Thermal Absorptance
  0.7,                                    !- Solar Absorptance
  0.7;                                    !- Visible Absorptance

OS:StandardsInformation:Material,
  {8c1e568f-f87c-43b0-a6c2-8845c3a86753}, !- Handle
  {6c087677-07b2-4d55-97ef-d93c239102db}; !- Material Name

OS:Construction,
  {f0209c87-9f14-411d-b0d5-687029a6b328}, !- Handle
  ASHRAE 189.1-2009 ExtRoof Metal ClimateZone 1, !- Name
  ,                                       !- Surface Rendering Name
  {62595f30-68b8-4637-9f52-6515b886c241}, !- Layer 1
  {adfbf837-ee85-471f-ad28-6425ad7b800c}, !- Layer 2
  {71415636-5e82-4ff7-860f-80ee16125540}; !- Layer 3

OS:StandardsInformation:Construction,
  {a7a13f07-6997-4590-9147-2bb1db111f76}, !- Handle
  {f0209c87-9f14-411d-b0d5-687029a6b328}, !- Construction Name
  ExteriorRoof,                           !- Intended Surface Type
  Metal,                                  !- Standards Construction Type
  ,                                       !- Perturbable Layer
  ,                                       !- Perturbable Layer Type
  ,                                       !- Other Perturbable Layer Type
  ASHRAE 189.1-2009;                      !- Construction Standard

OS:Material,
  {62595f30-68b8-4637-9f52-6515b886c241}, !- Handle
  Metal Roofing,                          !- Name
  MediumSmooth,                           !- Roughness
  0.0015,                                 !- Thickness {m}
  45.006,                                 !- Conductivity {W/m-K}
  7680,                                   !- Density {kg/m3}
  418.4,                                  !- Specific Heat {J/kg-K}
  0.9,                                    !- Thermal Absorptance
  0.6,                                    !- Solar Absorptance
  0.6;                                    !- Visible Absorptance

OS:StandardsInformation:Material,
  {8a7f4fea-cf52-4173-bdab-635549364495}, !- Handle
  {62595f30-68b8-4637-9f52-6515b886c241}; !- Material Name

OS:Material,
  {adfbf837-ee85-471f-ad28-6425ad7b800c}, !- Handle
  Roof Insulation [19],                   !- Name
  MediumRough,                            !- Roughness
  0.1868,                                 !- Thickness {m}
  0.049,                                  !- Conductivity {W/m-K}
  265,                                    !- Density {kg/m3}
  836.800000000001,                       !- Specific Heat {J/kg-K}
  0.9,                                    !- Thermal Absorptance
  0.7,                                    !- Solar Absorptance
  0.7;                                    !- Visible Absorptance

OS:StandardsInformation:Material,
  {7e07fd7d-c6cc-4e70-862e-fd9b88458360}, !- Handle
  {adfbf837-ee85-471f-ad28-6425ad7b800c}; !- Material Name

OS:Construction,
  {2b4caf1c-0b92-4cbf-86e1-e546ec06d246}, !- Handle
  ASHRAE 189.1-2009 ExtRoof Metal ClimateZone 2-5, !- Name
  ,                                       !- Surface Rendering Name
  {62595f30-68b8-4637-9f52-6515b886c241}, !- Layer 1
  {32a6841d-311b-4d7d-a801-00035f6a7510}, !- Layer 2
  {71415636-5e82-4ff7-860f-80ee16125540}; !- Layer 3

OS:StandardsInformation:Construction,
  {955930c7-bed3-48ec-a92b-3481da3c5860}, !- Handle
  {2b4caf1c-0b92-4cbf-86e1-e546ec06d246}, !- Construction Name
  ExteriorRoof,                           !- Intended Surface Type
  Metal,                                  !- Standards Construction Type
  ,                                       !- Perturbable Layer
  ,                                       !- Perturbable Layer Type
  ,                                       !- Other Perturbable Layer Type
  ASHRAE 189.1-2009;                      !- Construction Standard

OS:Material,
  {32a6841d-311b-4d7d-a801-00035f6a7510}, !- Handle
  Roof Insulation [22],                   !- Name
  MediumRough,                            !- Roughness
  0.2358,                                 !- Thickness {m}
  0.049,                                  !- Conductivity {W/m-K}
  265,                                    !- Density {kg/m3}
  836.800000000001,                       !- Specific Heat {J/kg-K}
  0.9,                                    !- Thermal Absorptance
  0.7,                                    !- Solar Absorptance
  0.7;                                    !- Visible Absorptance

OS:StandardsInformation:Material,
  {6b3687fc-70eb-4f88-84bd-7219cb64d2be}, !- Handle
  {32a6841d-311b-4d7d-a801-00035f6a7510}; !- Material Name

OS:Construction,
  {5b707ba8-0e88-4eda-a667-21ca0e0f0784}, !- Handle
  ASHRAE 189.1-2009 ExtRoof Metal ClimateZone 6, !- Name
  ,                                       !- Surface Rendering Name
  {62595f30-68b8-4637-9f52-6515b886c241}, !- Layer 1
  {31f8561b-0446-4d1c-9bab-813a0974b238}, !- Layer 2
  {71415636-5e82-4ff7-860f-80ee16125540}; !- Layer 3

OS:StandardsInformation:Construction,
  {eca25312-f4ca-4482-ad71-60dfd3573f47}, !- Handle
  {5b707ba8-0e88-4eda-a667-21ca0e0f0784}, !- Construction Name
  ExteriorRoof,                           !- Intended Surface Type
  Metal,                                  !- Standards Construction Type
  ,                                       !- Perturbable Layer
  ,                                       !- Perturbable Layer Type
  ,                                       !- Other Perturbable Layer Type
  ASHRAE 189.1-2009;                      !- Construction Standard

OS:Material,
  {31f8561b-0446-4d1c-9bab-813a0974b238}, !- Handle
  Roof Insulation [25],                   !- Name
  MediumRough,                            !- Roughness
  0.263,                                  !- Thickness {m}
  0.049,                                  !- Conductivity {W/m-K}
  265,                                    !- Density {kg/m3}
  836.800000000001,                       !- Specific Heat {J/kg-K}
  0.9,                                    !- Thermal Absorptance
  0.7,                                    !- Solar Absorptance
  0.7;                                    !- Visible Absorptance

OS:StandardsInformation:Material,
  {6222061e-af30-428d-af9d-1801fb187771}, !- Handle
  {31f8561b-0446-4d1c-9bab-813a0974b238}; !- Material Name

OS:Construction,
  {8b5f5f84-54c5-4e2c-8af4-34475f82d807}, !- Handle
  ASHRAE 189.1-2009 ExtRoof Metal ClimateZone 7-8, !- Name
  ,                                       !- Surface Rendering Name
  {62595f30-68b8-4637-9f52-6515b886c241}, !- Layer 1
  {39fc1a32-113b-4f6f-ac98-61de53b31156}, !- Layer 2
  {71415636-5e82-4ff7-860f-80ee16125540}; !- Layer 3

OS:StandardsInformation:Construction,
  {74e89348-d60c-4633-aee7-80b03782e148}, !- Handle
  {8b5f5f84-54c5-4e2c-8af4-34475f82d807}, !- Construction Name
  ExteriorRoof,                           !- Intended Surface Type
  Metal,                                  !- Standards Construction Type
  ,                                       !- Perturbable Layer
  ,                                       !- Perturbable Layer Type
  ,                                       !- Other Perturbable Layer Type
  ASHRAE 189.1-2009;                      !- Construction Standard

OS:Material,
  {39fc1a32-113b-4f6f-ac98-61de53b31156}, !- Handle
  Roof Insulation [27],                   !- Name
  MediumRough,                            !- Roughness
  0.297000000000001,                      !- Thickness {m}
  0.049,                                  !- Conductivity {W/m-K}
  265,                                    !- Density {kg/m3}
  836.800000000001,                       !- Specific Heat {J/kg-K}
  0.9,                                    !- Thermal Absorptance
  0.7,                                    !- Solar Absorptance
  0.7;                                    !- Visible Absorptance

OS:StandardsInformation:Material,
  {1767f217-760e-43d8-9a05-820ee52aac8a}, !- Handle
  {39fc1a32-113b-4f6f-ac98-61de53b31156}; !- Material Name

OS:Construction,
  {06b43326-20ca-4dee-90ad-d036ba6fb46b}, !- Handle
  ASHRAE 189.1-2009 ExtWall Mass ClimateZone 1, !- Name
  ,                                       !- Surface Rendering Name
  {ed81bfac-24c8-4898-8b0f-92cfbe40ca1f}, !- Layer 1
  {d90475b0-0b46-440f-81e3-4f64dc1257e4}, !- Layer 2
  {cfda045b-6251-43a0-9e92-6753886d44e3}, !- Layer 3
  {d765f09e-b05c-47f6-9918-9584555cc9b9}; !- Layer 4

OS:StandardsInformation:Construction,
  {6f522f9b-96eb-4502-a4b9-5fa312ea249d}, !- Handle
  {06b43326-20ca-4dee-90ad-d036ba6fb46b}, !- Construction Name
  ExteriorWall,                           !- Intended Surface Type
  Mass,                                   !- Standards Construction Type
  ,                                       !- Perturbable Layer
  ,                                       !- Perturbable Layer Type
  ,                                       !- Other Perturbable Layer Type
  ASHRAE 189.1-2009;                      !- Construction Standard

OS:Material,
  {ed81bfac-24c8-4898-8b0f-92cfbe40ca1f}, !- Handle
  1IN Stucco,                             !- Name
  Smooth,                                 !- Roughness
  0.0253,                                 !- Thickness {m}
  0.691799999999999,                      !- Conductivity {W/m-K}
  1858,                                   !- Density {kg/m3}
  836.999999999999,                       !- Specific Heat {J/kg-K}
  0.9,                                    !- Thermal Absorptance
  0.92,                                   !- Solar Absorptance
  0.92;                                   !- Visible Absorptance

OS:StandardsInformation:Material,
  {a6bf2f64-bbba-4eed-9137-b011657100bf}, !- Handle
  {ed81bfac-24c8-4898-8b0f-92cfbe40ca1f}; !- Material Name

OS:Material,
  {d90475b0-0b46-440f-81e3-4f64dc1257e4}, !- Handle
  8IN Concrete HW,                        !- Name
  MediumRough,                            !- Roughness
  0.2033,                                 !- Thickness {m}
  1.72959999999999,                       !- Conductivity {W/m-K}
  2242.99999999999,                       !- Density {kg/m3}
  836.999999999999,                       !- Specific Heat {J/kg-K}
  0.9,                                    !- Thermal Absorptance
  0.65,                                   !- Solar Absorptance
  0.65;                                   !- Visible Absorptance

OS:StandardsInformation:Material,
  {1adb47ca-d038-4a8b-8364-560bbec41adc}, !- Handle
  {d90475b0-0b46-440f-81e3-4f64dc1257e4}; !- Material Name

OS:Material,
  {cfda045b-6251-43a0-9e92-6753886d44e3}, !- Handle
  Wall Insulation [31],                   !- Name
  MediumRough,                            !- Roughness
  0.0337000000000001,                     !- Thickness {m}
  0.0432,                                 !- Conductivity {W/m-K}
  91,                                     !- Density {kg/m3}
  836.999999999999,                       !- Specific Heat {J/kg-K}
  0.9,                                    !- Thermal Absorptance
  0.5,                                    !- Solar Absorptance
  0.5;                                    !- Visible Absorptance

OS:StandardsInformation:Material,
  {3083deed-b11d-4fc5-bab8-3a18152e5785}, !- Handle
  {cfda045b-6251-43a0-9e92-6753886d44e3}; !- Material Name

OS:Construction,
  {b6edf08c-6a4c-4040-b5fe-7e1abd0619e9}, !- Handle
  ASHRAE 189.1-2009 ExtWall Mass ClimateZone 2, !- Name
  ,                                       !- Surface Rendering Name
  {ed81bfac-24c8-4898-8b0f-92cfbe40ca1f}, !- Layer 1
  {d90475b0-0b46-440f-81e3-4f64dc1257e4}, !- Layer 2
  {d21b53af-6f99-41e8-96a2-571151f326ed}, !- Layer 3
  {d765f09e-b05c-47f6-9918-9584555cc9b9}; !- Layer 4

OS:StandardsInformation:Construction,
  {46ad5985-6c16-4ea8-82d7-c20f19eeb5a5}, !- Handle
  {b6edf08c-6a4c-4040-b5fe-7e1abd0619e9}, !- Construction Name
  ExteriorWall,                           !- Intended Surface Type
  Mass,                                   !- Standards Construction Type
  ,                                       !- Perturbable Layer
  ,                                       !- Perturbable Layer Type
  ,                                       !- Other Perturbable Layer Type
  ASHRAE 189.1-2009;                      !- Construction Standard

OS:Material,
  {d21b53af-6f99-41e8-96a2-571151f326ed}, !- Handle
  Wall Insulation [35],                   !- Name
  MediumRough,                            !- Roughness
  0.0452,                                 !- Thickness {m}
  0.0432,                                 !- Conductivity {W/m-K}
  91,                                     !- Density {kg/m3}
  836.999999999999,                       !- Specific Heat {J/kg-K}
  0.9,                                    !- Thermal Absorptance
  0.5,                                    !- Solar Absorptance
  0.5;                                    !- Visible Absorptance

OS:StandardsInformation:Material,
  {d4fb0001-6f36-4676-88a1-e11b4e0618d7}, !- Handle
  {d21b53af-6f99-41e8-96a2-571151f326ed}; !- Material Name

OS:Construction,
  {23b23db5-3dae-404a-aa9a-d16ba5fbb9bf}, !- Handle
  ASHRAE 189.1-2009 ExtWall Mass ClimateZone 3, !- Name
  ,                                       !- Surface Rendering Name
  {ed81bfac-24c8-4898-8b0f-92cfbe40ca1f}, !- Layer 1
  {d90475b0-0b46-440f-81e3-4f64dc1257e4}, !- Layer 2
  {b05a9e94-3034-4969-8f9e-bccdede0b0fa}, !- Layer 3
  {d765f09e-b05c-47f6-9918-9584555cc9b9}; !- Layer 4

OS:StandardsInformation:Construction,
  {a83587d4-126f-45b6-a4df-5f5423b92d7b}, !- Handle
  {23b23db5-3dae-404a-aa9a-d16ba5fbb9bf}, !- Construction Name
  ExteriorWall,                           !- Intended Surface Type
  Mass,                                   !- Standards Construction Type
  ,                                       !- Perturbable Layer
  ,                                       !- Perturbable Layer Type
  ,                                       !- Other Perturbable Layer Type
  ASHRAE 189.1-2009;                      !- Construction Standard

OS:Material,
  {b05a9e94-3034-4969-8f9e-bccdede0b0fa}, !- Handle
  Wall Insulation [36],                   !- Name
  MediumRough,                            !- Roughness
  0.0565999999999999,                     !- Thickness {m}
  0.0432,                                 !- Conductivity {W/m-K}
  91,                                     !- Density {kg/m3}
  836.999999999999,                       !- Specific Heat {J/kg-K}
  0.9,                                    !- Thermal Absorptance
  0.5,                                    !- Solar Absorptance
  0.5;                                    !- Visible Absorptance

OS:StandardsInformation:Material,
  {0e5de5f7-0aec-4fc9-a610-e763a160ba19}, !- Handle
  {b05a9e94-3034-4969-8f9e-bccdede0b0fa}; !- Material Name

OS:Construction,
  {1cbdfc54-64ad-4891-9f4a-f83c81615c50}, !- Handle
  ASHRAE 189.1-2009 ExtWall Mass ClimateZone 4, !- Name
  ,                                       !- Surface Rendering Name
  {ed81bfac-24c8-4898-8b0f-92cfbe40ca1f}, !- Layer 1
  {d90475b0-0b46-440f-81e3-4f64dc1257e4}, !- Layer 2
  {2faed8a8-093e-4ca5-be35-b1b409b135ee}, !- Layer 3
  {d765f09e-b05c-47f6-9918-9584555cc9b9}; !- Layer 4

OS:StandardsInformation:Construction,
  {c9840947-eb18-40dd-a337-6cb25648dba8}, !- Handle
  {1cbdfc54-64ad-4891-9f4a-f83c81615c50}, !- Construction Name
  ExteriorWall,                           !- Intended Surface Type
  Mass,                                   !- Standards Construction Type
  ,                                       !- Perturbable Layer
  ,                                       !- Perturbable Layer Type
  ,                                       !- Other Perturbable Layer Type
  ASHRAE 189.1-2009;                      !- Construction Standard

OS:Material,
  {2faed8a8-093e-4ca5-be35-b1b409b135ee}, !- Handle
  Wall Insulation [37],                   !- Name
  MediumRough,                            !- Roughness
  0.0680999999999999,                     !- Thickness {m}
  0.0432,                                 !- Conductivity {W/m-K}
  91,                                     !- Density {kg/m3}
  836.999999999999,                       !- Specific Heat {J/kg-K}
  0.9,                                    !- Thermal Absorptance
  0.5,                                    !- Solar Absorptance
  0.5;                                    !- Visible Absorptance

OS:StandardsInformation:Material,
  {1e407272-087e-44a0-8770-e059977e31a4}, !- Handle
  {2faed8a8-093e-4ca5-be35-b1b409b135ee}; !- Material Name

OS:Construction,
  {06229f05-177b-4c57-8c15-58e1436d45c0}, !- Handle
  ASHRAE 189.1-2009 ExtWall Mass ClimateZone 5, !- Name
  ,                                       !- Surface Rendering Name
  {ed81bfac-24c8-4898-8b0f-92cfbe40ca1f}, !- Layer 1
  {d90475b0-0b46-440f-81e3-4f64dc1257e4}, !- Layer 2
  {10387c71-3e6c-462b-b5ed-c46fecdb0030}, !- Layer 3
  {d765f09e-b05c-47f6-9918-9584555cc9b9}; !- Layer 4

OS:StandardsInformation:Construction,
  {4d47665a-676d-4862-a82c-4487e7c63df8}, !- Handle
  {06229f05-177b-4c57-8c15-58e1436d45c0}, !- Construction Name
  ExteriorWall,                           !- Intended Surface Type
  Mass,                                   !- Standards Construction Type
  ,                                       !- Perturbable Layer
  ,                                       !- Perturbable Layer Type
  ,                                       !- Other Perturbable Layer Type
  ASHRAE 189.1-2009;                      !- Construction Standard

OS:Material,
  {10387c71-3e6c-462b-b5ed-c46fecdb0030}, !- Handle
  Wall Insulation [40],                   !- Name
  MediumRough,                            !- Roughness
  0.0793999999999999,                     !- Thickness {m}
  0.0432,                                 !- Conductivity {W/m-K}
  91,                                     !- Density {kg/m3}
  836.999999999999,                       !- Specific Heat {J/kg-K}
  0.9,                                    !- Thermal Absorptance
  0.5,                                    !- Solar Absorptance
  0.5;                                    !- Visible Absorptance

OS:StandardsInformation:Material,
  {fc9a3772-d2b6-443a-8577-8687d04e6ac8}, !- Handle
  {10387c71-3e6c-462b-b5ed-c46fecdb0030}; !- Material Name

OS:Construction,
  {92b7f2c1-274e-4601-97a4-6655518e263c}, !- Handle
  ASHRAE 189.1-2009 ExtWall Mass ClimateZone 6, !- Name
  ,                                       !- Surface Rendering Name
  {ed81bfac-24c8-4898-8b0f-92cfbe40ca1f}, !- Layer 1
  {d90475b0-0b46-440f-81e3-4f64dc1257e4}, !- Layer 2
  {eee15baa-10d3-4c5d-bc18-6343f4df75bb}, !- Layer 3
  {d765f09e-b05c-47f6-9918-9584555cc9b9}; !- Layer 4

OS:StandardsInformation:Construction,
  {9ca7483d-827b-406e-8eb9-6399a2d879e5}, !- Handle
  {92b7f2c1-274e-4601-97a4-6655518e263c}, !- Construction Name
  ExteriorWall,                           !- Intended Surface Type
  Mass,                                   !- Standards Construction Type
  ,                                       !- Perturbable Layer
  ,                                       !- Perturbable Layer Type
  ,                                       !- Other Perturbable Layer Type
  ASHRAE 189.1-2009;                      !- Construction Standard

OS:Material,
  {eee15baa-10d3-4c5d-bc18-6343f4df75bb}, !- Handle
  Wall Insulation [42],                   !- Name
  MediumRough,                            !- Roughness
  0.0913999999999999,                     !- Thickness {m}
  0.0432,                                 !- Conductivity {W/m-K}
  91,                                     !- Density {kg/m3}
  836.999999999999,                       !- Specific Heat {J/kg-K}