
OS:Version,
  {e540ea89-ecfd-46e6-a04d-1d79454a0b5f}, !- Handle
  1.2.3;                                  !- Version Identifier

OS:Construction,
  {1dd316eb-4ad8-44f5-aa88-d6e3f4cec522}, !- Handle
  ASHRAE 189.1-2009 AtticFloor ClimateZone 1-8, !- Name
  ,                                       !- Surface Rendering Name
  {ea9d43cb-d01f-4125-ae94-e324b6dac438}, !- Layer 1
  {67f4a7ef-1d69-4856-a48a-6037ed0dd7d4}, !- Layer 2
  {ea9d43cb-d01f-4125-ae94-e324b6dac438}; !- Layer 3

OS:StandardsInformation:Construction,
  {8a610db0-ba20-4e0a-9868-ed12c20275a0}, !- Handle
  {1dd316eb-4ad8-44f5-aa88-d6e3f4cec522}, !- Construction Name
  AtticFloor,                             !- Intended Surface Type
  ASHRAE 189.1-2009;                      !- Standards Construction Type

OS:Material,
  {ea9d43cb-d01f-4125-ae94-e324b6dac438}, !- Handle
  1/2IN Gypsum,                           !- Name
  Smooth,                                 !- Roughness
  0.0127,                                 !- Thickness {m}
  0.16,                                   !- Conductivity {W/m-K}
  784.9,                                  !- Density {kg/m3}
  830.000000000001,                       !- Specific Heat {J/kg-K}
  0.9,                                    !- Thermal Absorptance
  0.92,                                   !- Solar Absorptance
  0.92;                                   !- Visible Absorptance

OS:Material,
  {67f4a7ef-1d69-4856-a48a-6037ed0dd7d4}, !- Handle
  AtticFloor Insulation,                  !- Name
  MediumRough,                            !- Roughness
  0.2379,                                 !- Thickness {m}
  0.049,                                  !- Conductivity {W/m-K}
  265,                                    !- Density {kg/m3}
  836.800000000001,                       !- Specific Heat {J/kg-K}
  0.9,                                    !- Thermal Absorptance
  0.7,                                    !- Solar Absorptance
  0.7;                                    !- Visible Absorptance

OS:Construction,
  {0963aaf3-6578-411b-b6c5-78622b7db0b3}, !- Handle
  ASHRAE 189.1-2009 ExtRoof IEAD ClimateZone 1, !- Name
  ,                                       !- Surface Rendering Name
  {23ee2acd-1bdd-46d4-9a24-5377bc3699a4}, !- Layer 1
  {0c9a9f89-edf6-4313-9219-112d01306d39}, !- Layer 2
  {963e3048-e205-4ece-9d90-e3f629d5fc06}; !- Layer 3

OS:StandardsInformation:Construction,
  {d52c7155-da7b-4a35-b396-a9c7dda6494b}, !- Handle
  {0963aaf3-6578-411b-b6c5-78622b7db0b3}, !- Construction Name
  ExteriorRoof,                           !- Intended Surface Type
  ASHRAE 189.1-2009;                      !- Standards Construction Type

OS:Material,
  {23ee2acd-1bdd-46d4-9a24-5377bc3699a4}, !- Handle
  Roof Membrane,                          !- Name
  VeryRough,                              !- Roughness
  0.0095,                                 !- Thickness {m}
  0.16,                                   !- Conductivity {W/m-K}
  1121.29,                                !- Density {kg/m3}
  1460,                                   !- Specific Heat {J/kg-K}
  0.9,                                    !- Thermal Absorptance
  0.7,                                    !- Solar Absorptance
  0.7;                                    !- Visible Absorptance

OS:Material,
  {0c9a9f89-edf6-4313-9219-112d01306d39}, !- Handle
  Roof Insulation [18],                   !- Name
  MediumRough,                            !- Roughness
  0.1693,                                 !- Thickness {m}
  0.049,                                  !- Conductivity {W/m-K}
  265,                                    !- Density {kg/m3}
  836.800000000001,                       !- Specific Heat {J/kg-K}
  0.9,                                    !- Thermal Absorptance
  0.7,                                    !- Solar Absorptance
  0.7;                                    !- Visible Absorptance

OS:Material,
  {963e3048-e205-4ece-9d90-e3f629d5fc06}, !- Handle
  Metal Decking,                          !- Name
  MediumSmooth,                           !- Roughness
  0.0015,                                 !- Thickness {m}
  45.006,                                 !- Conductivity {W/m-K}
  7680,                                   !- Density {kg/m3}
  418.4,                                  !- Specific Heat {J/kg-K}
  0.9,                                    !- Thermal Absorptance
  0.7,                                    !- Solar Absorptance
  0.3;                                    !- Visible Absorptance

OS:Construction,
  {66bd9c42-fcb8-47eb-9359-dcffd5515fe0}, !- Handle
  ASHRAE 189.1-2009 ExtRoof IEAD ClimateZone 2-5, !- Name
  ,                                       !- Surface Rendering Name
  {23ee2acd-1bdd-46d4-9a24-5377bc3699a4}, !- Layer 1
  {38ce6ca5-2343-400c-b165-261a41ec19ba}, !- Layer 2
  {963e3048-e205-4ece-9d90-e3f629d5fc06}; !- Layer 3

OS:StandardsInformation:Construction,
  {6576fe86-d912-4816-ae47-35df424f9da5}, !- Handle
  {66bd9c42-fcb8-47eb-9359-dcffd5515fe0}, !- Construction Name
  ExteriorRoof,                           !- Intended Surface Type
  ASHRAE 189.1-2009;                      !- Standards Construction Type

OS:Material,
  {38ce6ca5-2343-400c-b165-261a41ec19ba}, !- Handle
  Roof Insulation [21],                   !- Name
  MediumRough,                            !- Roughness
  0.2105,                                 !- Thickness {m}
  0.049,                                  !- Conductivity {W/m-K}
  265,                                    !- Density {kg/m3}
  836.800000000001,                       !- Specific Heat {J/kg-K}
  0.9,                                    !- Thermal Absorptance
  0.7,                                    !- Solar Absorptance
  0.7;                                    !- Visible Absorptance

OS:Construction,
  {2f136ca4-a1c7-4ae3-9595-4ba4d05ad092}, !- Handle
  ASHRAE 189.1-2009 ExtRoof IEAD ClimateZone 6, !- Name
  ,                                       !- Surface Rendering Name
  {23ee2acd-1bdd-46d4-9a24-5377bc3699a4}, !- Layer 1
  {02db9a74-d8f4-43d3-bca4-7e82563d3779}, !- Layer 2
  {963e3048-e205-4ece-9d90-e3f629d5fc06}; !- Layer 3

OS:StandardsInformation:Construction,
  {07e46f4e-4934-4117-be2d-0a248a1ed930}, !- Handle
  {2f136ca4-a1c7-4ae3-9595-4ba4d05ad092}, !- Construction Name
  ExteriorRoof,                           !- Intended Surface Type
  ASHRAE 189.1-2009;                      !- Standards Construction Type

OS:Material,
  {02db9a74-d8f4-43d3-bca4-7e82563d3779}, !- Handle
  Roof Insulation [24],                   !- Name
  MediumRough,                            !- Roughness
  0.260100000000001,                      !- Thickness {m}
  0.049,                                  !- Conductivity {W/m-K}
  265,                                    !- Density {kg/m3}
  836.800000000001,                       !- Specific Heat {J/kg-K}
  0.9,                                    !- Thermal Absorptance
  0.7,                                    !- Solar Absorptance
  0.7;                                    !- Visible Absorptance

OS:Construction,
  {c0a3afcd-4afc-415e-8c25-c79e25da6248}, !- Handle
  ASHRAE 189.1-2009 ExtRoof IEAD ClimateZone 7-8, !- Name
  ,                                       !- Surface Rendering Name
  {23ee2acd-1bdd-46d4-9a24-5377bc3699a4}, !- Layer 1
  {ba5d0dc3-548a-4b2f-ab42-823c989a5467}, !- Layer 2
  {963e3048-e205-4ece-9d90-e3f629d5fc06}; !- Layer 3

OS:StandardsInformation:Construction,
  {97226b89-c762-4f8a-96fb-fcd8433efd93}, !- Handle
  {c0a3afcd-4afc-415e-8c25-c79e25da6248}, !- Construction Name
  ExteriorRoof,                           !- Intended Surface Type
  ASHRAE 189.1-2009;                      !- Standards Construction Type

OS:Material,
  {ba5d0dc3-548a-4b2f-ab42-823c989a5467}, !- Handle
  Roof Insulation [26],                   !- Name
  MediumRough,                            !- Roughness
  0.2941,                                 !- Thickness {m}
  0.049,                                  !- Conductivity {W/m-K}
  265,                                    !- Density {kg/m3}
  836.800000000001,                       !- Specific Heat {J/kg-K}
  0.9,                                    !- Thermal Absorptance
  0.7,                                    !- Solar Absorptance
  0.7;                                    !- Visible Absorptance

OS:Construction,
  {c6135956-aba7-468c-b5f9-e9edc33d7f60}, !- Handle
  ASHRAE 189.1-2009 ExtRoof Metal ClimateZone 1, !- Name
  ,                                       !- Surface Rendering Name
  {919a5e57-fda9-4232-856c-78bf37234f30}, !- Layer 1
  {6e9f78c9-8fd8-4a56-bba4-c7ad179e1f69}; !- Layer 2

OS:StandardsInformation:Construction,
  {aa78eb02-7b0d-4800-91a0-edc8fcd9a12a}, !- Handle
  {c6135956-aba7-468c-b5f9-e9edc33d7f60}, !- Construction Name
  ExteriorRoof,                           !- Intended Surface Type
  ASHRAE 189.1-2009;                      !- Standards Construction Type

OS:Material,
  {919a5e57-fda9-4232-856c-78bf37234f30}, !- Handle
  Metal Roofing,                          !- Name
  MediumSmooth,                           !- Roughness
  0.0015,                                 !- Thickness {m}
  45.006,                                 !- Conductivity {W/m-K}
  7680,                                   !- Density {kg/m3}
  418.4,                                  !- Specific Heat {J/kg-K}
  0.9,                                    !- Thermal Absorptance
  0.3,                                    !- Solar Absorptance
  0.3;                                    !- Visible Absorptance

OS:Material,
  {6e9f78c9-8fd8-4a56-bba4-c7ad179e1f69}, !- Handle
  Roof Insulation [19],                   !- Name
  MediumRough,                            !- Roughness
  0.1868,                                 !- Thickness {m}
  0.049,                                  !- Conductivity {W/m-K}
  265,                                    !- Density {kg/m3}
  836.800000000001,                       !- Specific Heat {J/kg-K}
  0.9,                                    !- Thermal Absorptance
  0.7,                                    !- Solar Absorptance
  0.7;                                    !- Visible Absorptance

OS:Construction,
  {a8a06bbc-7c71-496a-b57b-d1327c09a464}, !- Handle
  ASHRAE 189.1-2009 ExtRoof Metal ClimateZone 2-5, !- Name
  ,                                       !- Surface Rendering Name
  {919a5e57-fda9-4232-856c-78bf37234f30}, !- Layer 1
  {1fa550e6-f488-45de-8619-01c3525bc024}; !- Layer 2

OS:StandardsInformation:Construction,
  {8eeb38d0-6a5a-4673-b44b-9fdc3c7923b4}, !- Handle
  {a8a06bbc-7c71-496a-b57b-d1327c09a464}, !- Construction Name
  ExteriorRoof,                           !- Intended Surface Type
  ASHRAE 189.1-2009;                      !- Standards Construction Type

OS:Material,
  {1fa550e6-f488-45de-8619-01c3525bc024}, !- Handle
  Roof Insulation [22],                   !- Name
  MediumRough,                            !- Roughness
  0.2358,                                 !- Thickness {m}
  0.049,                                  !- Conductivity {W/m-K}
  265,                                    !- Density {kg/m3}
  836.800000000001,                       !- Specific Heat {J/kg-K}
  0.9,                                    !- Thermal Absorptance
  0.7,                                    !- Solar Absorptance
  0.7;                                    !- Visible Absorptance

OS:Construction,
  {73cb7b1e-f59f-469f-a960-ab2ad1c2cca0}, !- Handle
  ASHRAE 189.1-2009 ExtRoof Metal ClimateZone 6, !- Name
  ,                                       !- Surface Rendering Name
  {919a5e57-fda9-4232-856c-78bf37234f30}, !- Layer 1
  {405ba993-a6b0-4be4-a6ee-69a4ec1841df}; !- Layer 2

OS:StandardsInformation:Construction,
  {5e8199e2-080b-4786-ab9b-ab9ae235d856}, !- Handle
  {73cb7b1e-f59f-469f-a960-ab2ad1c2cca0}, !- Construction Name
  ExteriorRoof,                           !- Intended Surface Type
  ASHRAE 189.1-2009;                      !- Standards Construction Type

OS:Material,
  {405ba993-a6b0-4be4-a6ee-69a4ec1841df}, !- Handle
  Roof Insulation [25],                   !- Name
  MediumRough,                            !- Roughness
  0.263,                                  !- Thickness {m}
  0.049,                                  !- Conductivity {W/m-K}
  265,                                    !- Density {kg/m3}
  836.800000000001,                       !- Specific Heat {J/kg-K}
  0.9,                                    !- Thermal Absorptance
  0.7,                                    !- Solar Absorptance
  0.7;                                    !- Visible Absorptance

OS:Construction,
  {1555d10c-e4a5-4257-abda-6a4f111cfd64}, !- Handle
  ASHRAE 189.1-2009 ExtRoof Metal ClimateZone 7-8, !- Name
  ,                                       !- Surface Rendering Name
  {919a5e57-fda9-4232-856c-78bf37234f30}, !- Layer 1
  {e4661af4-8cd7-4e25-93f4-816c7dc2030e}; !- Layer 2

OS:StandardsInformation:Construction,
  {b11d2fae-d32f-48be-aa3b-d0be533b9472}, !- Handle
  {1555d10c-e4a5-4257-abda-6a4f111cfd64}, !- Construction Name
  ExteriorRoof,                           !- Intended Surface Type
  ASHRAE 189.1-2009;                      !- Standards Construction Type

OS:Material,
  {e4661af4-8cd7-4e25-93f4-816c7dc2030e}, !- Handle
  Roof Insulation [27],                   !- Name
  MediumRough,                            !- Roughness
  0.297000000000001,                      !- Thickness {m}
  0.049,                                  !- Conductivity {W/m-K}
  265,                                    !- Density {kg/m3}
  836.800000000001,                       !- Specific Heat {J/kg-K}
  0.9,                                    !- Thermal Absorptance
  0.7,                                    !- Solar Absorptance
  0.7;                                    !- Visible Absorptance

OS:Construction,
  {a9cf4ff4-65fb-4a93-b026-e2890e1ff475}, !- Handle
  ASHRAE 189.1-2009 ExtWall Mass ClimateZone 1, !- Name
  ,                                       !- Surface Rendering Name
  {655c79b6-45e7-4a85-bbf9-a52bd7f890e3}, !- Layer 1
  {6d6c0ab5-dc21-47b0-869d-e80e8532732d}, !- Layer 2
  {dade6cf6-6b87-4f63-96cf-13e3e6c6a726}, !- Layer 3
  {ea9d43cb-d01f-4125-ae94-e324b6dac438}; !- Layer 4

OS:StandardsInformation:Construction,
  {5e6d9e60-bb67-4f15-a9db-2e2514d3066e}, !- Handle
  {a9cf4ff4-65fb-4a93-b026-e2890e1ff475}, !- Construction Name
  ExteriorWall,                           !- Intended Surface Type
  ASHRAE 189.1-2009;                      !- Standards Construction Type

OS:Material,
  {655c79b6-45e7-4a85-bbf9-a52bd7f890e3}, !- Handle
  1IN Stucco,                             !- Name
  Smooth,                                 !- Roughness
  0.0253,                                 !- Thickness {m}
  0.691799999999999,                      !- Conductivity {W/m-K}
  1858,                                   !- Density {kg/m3}
  836.999999999999,                       !- Specific Heat {J/kg-K}
  0.9,                                    !- Thermal Absorptance
  0.92,                                   !- Solar Absorptance
  0.92;                                   !- Visible Absorptance

OS:Material,
  {6d6c0ab5-dc21-47b0-869d-e80e8532732d}, !- Handle
  8IN Concrete HW,                        !- Name
  MediumRough,                            !- Roughness
  0.2033,                                 !- Thickness {m}
  1.72959999999999,                       !- Conductivity {W/m-K}
  2242.99999999999,                       !- Density {kg/m3}
  836.999999999999,                       !- Specific Heat {J/kg-K}
  0.9,                                    !- Thermal Absorptance
  0.65,                                   !- Solar Absorptance
  0.65;                                   !- Visible Absorptance

OS:Material,
  {dade6cf6-6b87-4f63-96cf-13e3e6c6a726}, !- Handle
  Wall Insulation [31],                   !- Name
  MediumRough,                            !- Roughness
  0.0337000000000001,                     !- Thickness {m}
  0.0432,                                 !- Conductivity {W/m-K}
  91,                                     !- Density {kg/m3}
  836.999999999999,                       !- Specific Heat {J/kg-K}
  0.9,                                    !- Thermal Absorptance
  0.5,                                    !- Solar Absorptance
  0.5;                                    !- Visible Absorptance

OS:Construction,
  {4370ed81-2fdc-4709-92e5-d3a90aeb0e54}, !- Handle
  ASHRAE 189.1-2009 ExtWall Mass ClimateZone 2, !- Name
  ,                                       !- Surface Rendering Name
  {655c79b6-45e7-4a85-bbf9-a52bd7f890e3}, !- Layer 1
  {6d6c0ab5-dc21-47b0-869d-e80e8532732d}, !- Layer 2
  {08af87a6-1ce5-44e6-9b39-7d45f8354152}, !- Layer 3
  {ea9d43cb-d01f-4125-ae94-e324b6dac438}; !- Layer 4

OS:StandardsInformation:Construction,
  {0b113269-0dc3-4167-b569-8710c4e942d1}, !- Handle
  {4370ed81-2fdc-4709-92e5-d3a90aeb0e54}, !- Construction Name
  ExteriorWall,                           !- Intended Surface Type
  ASHRAE 189.1-2009;                      !- Standards Construction Type

OS:Material,
  {08af87a6-1ce5-44e6-9b39-7d45f8354152}, !- Handle
  Wall Insulation [35],                   !- Name
  MediumRough,                            !- Roughness
  0.0452,                                 !- Thickness {m}
  0.0432,                                 !- Conductivity {W/m-K}
  91,                                     !- Density {kg/m3}
  836.999999999999,                       !- Specific Heat {J/kg-K}
  0.9,                                    !- Thermal Absorptance
  0.5,                                    !- Solar Absorptance
  0.5;                                    !- Visible Absorptance

OS:Construction,
  {6c3477be-d403-4354-bd71-24e1e3b332e9}, !- Handle
  ASHRAE 189.1-2009 ExtWall Mass ClimateZone 3, !- Name
  ,                                       !- Surface Rendering Name
  {655c79b6-45e7-4a85-bbf9-a52bd7f890e3}, !- Layer 1
  {6d6c0ab5-dc21-47b0-869d-e80e8532732d}, !- Layer 2
  {d014e490-a2f5-4d4b-8c29-89827cf423bd}, !- Layer 3
  {ea9d43cb-d01f-4125-ae94-e324b6dac438}; !- Layer 4

OS:StandardsInformation:Construction,
  {7be59df4-750e-4d0a-b981-fb823bd064a7}, !- Handle
  {6c3477be-d403-4354-bd71-24e1e3b332e9}, !- Construction Name
  ExteriorWall,                           !- Intended Surface Type
  ASHRAE 189.1-2009;                      !- Standards Construction Type

OS:Material,
  {d014e490-a2f5-4d4b-8c29-89827cf423bd}, !- Handle
  Wall Insulation [36],                   !- Name
  MediumRough,                            !- Roughness
  0.0565999999999999,                     !- Thickness {m}
  0.0432,                                 !- Conductivity {W/m-K}
  91,                                     !- Density {kg/m3}
  836.999999999999,                       !- Specific Heat {J/kg-K}
  0.9,                                    !- Thermal Absorptance
  0.5,                                    !- Solar Absorptance
  0.5;                                    !- Visible Absorptance

OS:Construction,
  {5634d703-cf16-42df-88a6-9978577e5ad4}, !- Handle
  ASHRAE 189.1-2009 ExtWall Mass ClimateZone 4, !- Name
  ,                                       !- Surface Rendering Name
  {655c79b6-45e7-4a85-bbf9-a52bd7f890e3}, !- Layer 1
  {6d6c0ab5-dc21-47b0-869d-e80e8532732d}, !- Layer 2
  {08aa5fc9-22c7-416c-97f5-64b94f09cd9f}, !- Layer 3
  {ea9d43cb-d01f-4125-ae94-e324b6dac438}; !- Layer 4

OS:StandardsInformation:Construction,
  {68454833-8d13-4606-ac3c-88e382d34fa5}, !- Handle
  {5634d703-cf16-42df-88a6-9978577e5ad4}, !- Construction Name
  ExteriorWall,                           !- Intended Surface Type
  ASHRAE 189.1-2009;                      !- Standards Construction Type

OS:Material,
  {08aa5fc9-22c7-416c-97f5-64b94f09cd9f}, !- Handle
  Wall Insulation [37],                   !- Name
  MediumRough,                            !- Roughness
  0.0680999999999999,                     !- Thickness {m}
  0.0432,                                 !- Conductivity {W/m-K}
  91,                                     !- Density {kg/m3}
  836.999999999999,                       !- Specific Heat {J/kg-K}
  0.9,                                    !- Thermal Absorptance
  0.5,                                    !- Solar Absorptance
  0.5;                                    !- Visible Absorptance

OS:Construction,
  {e4a47cc1-01f6-4746-8b04-2f59e7da0629}, !- Handle
  ASHRAE 189.1-2009 ExtWall Mass ClimateZone 5, !- Name
  ,                                       !- Surface Rendering Name
  {655c79b6-45e7-4a85-bbf9-a52bd7f890e3}, !- Layer 1
  {6d6c0ab5-dc21-47b0-869d-e80e8532732d}, !- Layer 2
  {35542228-a5b6-439f-913f-ee6bde97b683}, !- Layer 3
  {ea9d43cb-d01f-4125-ae94-e324b6dac438}; !- Layer 4

OS:StandardsInformation:Construction,
  {ce400bda-eafb-408f-b7a7-9dbd781eb19b}, !- Handle
  {e4a47cc1-01f6-4746-8b04-2f59e7da0629}, !- Construction Name
  ExteriorWall,                           !- Intended Surface Type
  ASHRAE 189.1-2009;                      !- Standards Construction Type

OS:Material,
  {35542228-a5b6-439f-913f-ee6bde97b683}, !- Handle
  Wall Insulation [40],                   !- Name
  MediumRough,                            !- Roughness
  0.0793999999999999,                     !- Thickness {m}
  0.0432,                                 !- Conductivity {W/m-K}
  91,                                     !- Density {kg/m3}
  836.999999999999,                       !- Specific Heat {J/kg-K}
  0.9,                                    !- Thermal Absorptance
  0.5,                                    !- Solar Absorptance
  0.5;                                    !- Visible Absorptance

OS:Construction,
  {6e2524f1-5fa1-4775-997d-9e265eca3638}, !- Handle
  ASHRAE 189.1-2009 ExtWall Mass ClimateZone 6, !- Name
  ,                                       !- Surface Rendering Name
  {655c79b6-45e7-4a85-bbf9-a52bd7f890e3}, !- Layer 1
  {6d6c0ab5-dc21-47b0-869d-e80e8532732d}, !- Layer 2
  {e9db5765-53e8-42d1-93dd-5a02b015c30e}, !- Layer 3
  {ea9d43cb-d01f-4125-ae94-e324b6dac438}; !- Layer 4

OS:StandardsInformation:Construction,
  {c2dd52b9-4e1e-4b2e-96a2-3340d4e1e9b1}, !- Handle
  {6e2524f1-5fa1-4775-997d-9e265eca3638}, !- Construction Name
  ExteriorWall,                           !- Intended Surface Type
  ASHRAE 189.1-2009;                      !- Standards Construction Type

OS:Material,
  {e9db5765-53e8-42d1-93dd-5a02b015c30e}, !- Handle
  Wall Insulation [42],                   !- Name
  MediumRough,                            !- Roughness
  0.0913999999999999,                     !- Thickness {m}
  0.0432,                                 !- Conductivity {W/m-K}
  91,                                     !- Density {kg/m3}
  836.999999999999,                       !- Specific Heat {J/kg-K}
  0.9,                                    !- Thermal Absorptance
  0.5,                                    !- Solar Absorptance
  0.5;                                    !- Visible Absorptance

OS:Construction,
  {046f911d-6eb6-40de-8792-1dab4a68d11d}, !- Handle
  ASHRAE 189.1-2009 ExtWall Mass ClimateZone 7-8, !- Name
  ,                                       !- Surface Rendering Name
  {655c79b6-45e7-4a85-bbf9-a52bd7f890e3}, !- Layer 1
  {6d6c0ab5-dc21-47b0-869d-e80e8532732d}, !- Layer 2
  {6dd2e65f-7682-4f43-a4f0-9b3f4ebe8333}, !- Layer 3
  {ea9d43cb-d01f-4125-ae94-e324b6dac438}; !- Layer 4

OS:StandardsInformation:Construction,
  {ec9dd76b-64ae-44f0-86b1-bdae47e4f591}, !- Handle
  {046f911d-6eb6-40de-8792-1dab4a68d11d}, !- Construction Name
  ExteriorWall,                           !- Intended Surface Type
  ASHRAE 189.1-2009;                      !- Standards Construction Type

OS:Material,
  {6dd2e65f-7682-4f43-a4f0-9b3f4ebe8333}, !- Handle
  Wall Insulation [44],                   !- Name
  MediumRough,                            !- Roughness
  0.1104,                                 !- Thickness {m}
  0.0432,                                 !- Conductivity {W/m-K}
  91,                                     !- Density {kg/m3}
  836.999999999999,                       !- Specific Heat {J/kg-K}
  0.9,                                    !- Thermal Absorptance
  0.5,                                    !- Solar Absorptance
  0.5;                                    !- Visible Absorptance

OS:Construction,
  {86eebd84-b0ac-491c-8099-2a46a1e4fc8e}, !- Handle
  ASHRAE 189.1-2009 ExtWall Mass ClimateZone alt-res 1, !- Name
  ,                                       !- Surface Rendering Name
  {655c79b6-45e7-4a85-bbf9-a52bd7f890e3}, !- Layer 1
  {6d6c0ab5-dc21-47b0-869d-e80e8532732d}, !- Layer 2
  {08af87a6-1ce5-44e6-9b39-7d45f8354152}, !- Layer 3
  {ea9d43cb-d01f-4125-ae94-e324b6dac438}; !- Layer 4

OS:StandardsInformation:Construction,
  {fae7cdac-5739-4367-b8cc-50f7db5fcb95}, !- Handle
  {86eebd84-b0ac-491c-8099-2a46a1e4fc8e}, !- Construction Name
  ExteriorWall,                           !- Intended Surface Type
  ASHRAE 189.1-2009;                      !- Standards Construction Type

OS:Construction,
  {25f88222-f75e-47c2-b316-17d37fc1eafb}, !- Handle
  ASHRAE 189.1-2009 ExtWall Mass ClimateZone alt-res 2, !- Name
  ,                                       !- Surface Rendering Name
  {655c79b6-45e7-4a85-bbf9-a52bd7f890e3}, !- Layer 1
  {6d6c0ab5-dc21-47b0-869d-e80e8532732d}, !- Layer 2
  {d014e490-a2f5-4d4b-8c29-89827cf423bd}, !- Layer 3
  {ea9d43cb-d01f-4125-ae94-e324b6dac438}; !- Layer 4

OS:StandardsInformation:Construction,
  {59ddc1a0-df35-4837-b4d6-305f83059410}, !- Handle
  {25f88222-f75e-47c2-b316-17d37fc1eafb}, !- Construction Name
  ExteriorWall,                           !- Intended Surface Type
  ASHRAE 189.1-2009;                      !- Standards Construction Type

OS:Construction,
  {31f841a0-a77a-44ee-b428-79f891423d56}, !- Handle
  ASHRAE 189.1-2009 ExtWall Mass ClimateZone alt-res 3, !- Name
  ,                                       !- Surface Rendering Name
  {655c79b6-45e7-4a85-bbf9-a52bd7f890e3}, !- Layer 1
  {6d6c0ab5-dc21-47b0-869d-e80e8532732d}, !- Layer 2
  {08aa5fc9-22c7-416c-97f5-64b94f09cd9f}, !- Layer 3
  {ea9d43cb-d01f-4125-ae94-e324b6dac438}; !- Layer 4

OS:StandardsInformation:Construction,
  {b9ced011-a9d6-4de6-9f41-dd35d4501e48}, !- Handle
  {31f841a0-a77a-44ee-b428-79f891423d56}, !- Construction Name
  ExteriorWall,                           !- Intended Surface Type
  ASHRAE 189.1-2009;                      !- Standards Construction Type

OS:Construction,
  {9fd5f50d-fb71-473e-a8cc-19018c6d804e}, !- Handle
  ASHRAE 189.1-2009 ExtWall Mass ClimateZone alt-res 4, !- Name
  ,                                       !- Surface Rendering Name
  {655c79b6-45e7-4a85-bbf9-a52bd7f890e3}, !- Layer 1
  {6d6c0ab5-dc21-47b0-869d-e80e8532732d}, !- Layer 2
  {35542228-a5b6-439f-913f-ee6bde97b683}, !- Layer 3
  {ea9d43cb-d01f-4125-ae94-e324b6dac438}; !- Layer 4

OS:StandardsInformation:Construction,
  {c2cfc2f6-8d3c-4a6b-9593-0a7d79540d4a}, !- Handle
  {9fd5f50d-fb71-473e-a8cc-19018c6d804e}, !- Construction Name
  ExteriorWall,                           !- Intended Surface Type
  ASHRAE 189.1-2009;                      !- Standards Construction Type

OS:Construction,
  {c31f182f-48a7-410b-ab24-087df99aec97}, !- Handle
  ASHRAE 189.1-2009 ExtWall Mass ClimateZone alt-res 5, !- Name
  ,                                       !- Surface Rendering Name
  {655c79b6-45e7-4a85-bbf9-a52bd7f890e3}, !- Layer 1
  {6d6c0ab5-dc21-47b0-869d-e80e8532732d}, !- Layer 2
  {e9db5765-53e8-42d1-93dd-5a02b015c30e}, !- Layer 3
  {ea9d43cb-d01f-4125-ae94-e324b6dac438}; !- Layer 4

OS:StandardsInformation:Construction,
  {bda7fa58-697b-4f2c-8fa2-d71e9308f9d6}, !- Handle
  {c31f182f-48a7-410b-ab24-087df99aec97}, !- Construction Name
  ExteriorWall,                           !- Intended Surface Type
  ASHRAE 189.1-2009;                      !- Standards Construction Type

OS:Construction,
  {3cd217bd-ec0a-4fd6-9b71-ee1d5ef58788}, !- Handle
  ASHRAE 189.1-2009 ExtWall Mass ClimateZone alt-res 6, !- Name
  ,                                       !- Surface Rendering Name
  {655c79b6-45e7-4a85-bbf9-a52bd7f890e3}, !- Layer 1
  {6d6c0ab5-dc21-47b0-869d-e80e8532732d}, !- Layer 2
  {6dd2e65f-7682-4f43-a4f0-9b3f4ebe8333}, !- Layer 3
  {ea9d43cb-d01f-4125-ae94-e324b6dac438}; !- Layer 4

OS:StandardsInformation:Construction,
  {17d7f2da-7175-46d8-b329-09ce4ba1d094}, !- Handle
  {3cd217bd-ec0a-4fd6-9b71-ee1d5ef58788}, !- Construction Name
  ExteriorWall,                           !- Intended Surface Type
  ASHRAE 189.1-2009;                      !- Standards Construction Type

OS:Construction,
  {e1820529-a33c-4bdd-a31d-25d3ce2285ec}, !- Handle
  ASHRAE 189.1-2009 ExtWall Mass ClimateZone alt-res 7, !- Name
  ,                                       !- Surface Rendering Name
  {655c79b6-45e7-4a85-bbf9-a52bd7f890e3}, !- Layer 1
  {6d6c0ab5-dc21-47b0-869d-e80e8532732d}, !- Layer 2
  {6dd2e65f-7682-4f43-a4f0-9b3f4ebe8333}, !- Layer 3
  {ea9d43cb-d01f-4125-ae94-e324b6dac438}; !- Layer 4

OS:StandardsInformation:Construction,
  {8a0a0575-a2c8-42f1-bc6f-a4f924846702}, !- Handle
  {e1820529-a33c-4bdd-a31d-25d3ce2285ec}, !- Construction Name
  ExteriorWall,                           !- Intended Surface Type
  ASHRAE 189.1-2009;                      !- Standards Construction Type

OS:Construction,
  {77978dcd-4e04-4ce0-b4a1-457e821d20d4}, !- Handle
  ASHRAE 189.1-2009 ExtWall Mass ClimateZone alt-res 8, !- Name