
OS:Version,
  {40911756-a64d-4151-833f-6e90a6f1bcae}, !- Handle
  1.4.0;                                  !- Version Identifier

OS:Construction,
  {2050ca2f-308f-4e4a-85ce-195c1aabe277}, !- Handle
  ASHRAE 189.1-2009 AtticFloor ClimateZone 1-8, !- Name
  ,                                       !- Surface Rendering Name
  {4ee0d5bb-1c5a-4a9d-91ac-6f3b666a6ebf}, !- Layer 1
  {7c77302e-679f-43ac-b4be-9f53471c2ffe}, !- Layer 2
  {4ee0d5bb-1c5a-4a9d-91ac-6f3b666a6ebf}; !- Layer 3

OS:StandardsInformation:Construction,
  {4e2e6a34-85b8-40bf-8377-bcfbc179dbfb}, !- Handle
  {2050ca2f-308f-4e4a-85ce-195c1aabe277}, !- Construction Name
  AtticFloor,                             !- Intended Surface Type
  WoodFramed;                             !- Standards Construction Type

OS:Material,
  {4ee0d5bb-1c5a-4a9d-91ac-6f3b666a6ebf}, !- Handle
  1/2IN Gypsum,                           !- Name
  Smooth,                                 !- Roughness
  0.0127,                                 !- Thickness {m}
  0.16,                                   !- Conductivity {W/m-K}
  784.9,                                  !- Density {kg/m3}
  830.000000000001,                       !- Specific Heat {J/kg-K}
  0.9,                                    !- Thermal Absorptance
  0.4,                                    !- Solar Absorptance
  0.4;                                    !- Visible Absorptance

OS:Material,
  {7c77302e-679f-43ac-b4be-9f53471c2ffe}, !- Handle
  AtticFloor Insulation,                  !- Name
  MediumRough,                            !- Roughness
  0.2379,                                 !- Thickness {m}
  0.049,                                  !- Conductivity {W/m-K}
  265,                                    !- Density {kg/m3}
  836.800000000001,                       !- Specific Heat {J/kg-K}
  0.9,                                    !- Thermal Absorptance
  0.7,                                    !- Solar Absorptance
  0.7;                                    !- Visible Absorptance

OS:Construction,
  {aef327e3-60d5-425e-8284-552feb231ca9}, !- Handle
  ASHRAE 189.1-2009 ExtRoof IEAD ClimateZone 1, !- Name
  ,                                       !- Surface Rendering Name
  {c6fcb4ec-db7e-4aa6-868a-ab1e89a83a1e}, !- Layer 1
  {5a230a66-7dd1-464c-84f0-61c55ccf2427}, !- Layer 2
  {22e5c79b-e294-4330-825f-fee208f663d8}; !- Layer 3

OS:StandardsInformation:Construction,
  {e8e9679c-5608-4276-af31-6873aaf15832}, !- Handle
  {aef327e3-60d5-425e-8284-552feb231ca9}, !- Construction Name
  ExteriorRoof,                           !- Intended Surface Type
  IEAD;                                   !- Standards Construction Type

OS:Material,
  {c6fcb4ec-db7e-4aa6-868a-ab1e89a83a1e}, !- Handle
  Roof Membrane,                          !- Name
  VeryRough,                              !- Roughness
  0.0095,                                 !- Thickness {m}
  0.16,                                   !- Conductivity {W/m-K}
  1121.29,                                !- Density {kg/m3}
  1460,                                   !- Specific Heat {J/kg-K}
  0.9,                                    !- Thermal Absorptance
  0.7,                                    !- Solar Absorptance
  0.7;                                    !- Visible Absorptance

OS:Material,
  {5a230a66-7dd1-464c-84f0-61c55ccf2427}, !- Handle
  Roof Insulation [18],                   !- Name
  MediumRough,                            !- Roughness
  0.1693,                                 !- Thickness {m}
  0.049,                                  !- Conductivity {W/m-K}
  265,                                    !- Density {kg/m3}
  836.800000000001,                       !- Specific Heat {J/kg-K}
  0.9,                                    !- Thermal Absorptance
  0.7,                                    !- Solar Absorptance
  0.7;                                    !- Visible Absorptance

OS:Material,
  {22e5c79b-e294-4330-825f-fee208f663d8}, !- Handle
  Metal Decking,                          !- Name
  MediumSmooth,                           !- Roughness
  0.0015,                                 !- Thickness {m}
  45.006,                                 !- Conductivity {W/m-K}
  7680,                                   !- Density {kg/m3}
  418.4,                                  !- Specific Heat {J/kg-K}
  0.9,                                    !- Thermal Absorptance
  0.6,                                    !- Solar Absorptance
  0.6;                                    !- Visible Absorptance

OS:Construction,
  {182425e2-d88e-4b88-93e9-4e917d4da7ee}, !- Handle
  ASHRAE 189.1-2009 ExtRoof IEAD ClimateZone 2-5, !- Name
  ,                                       !- Surface Rendering Name
  {c6fcb4ec-db7e-4aa6-868a-ab1e89a83a1e}, !- Layer 1
  {d997e448-e305-4136-b45c-5b977ded500e}, !- Layer 2
  {22e5c79b-e294-4330-825f-fee208f663d8}; !- Layer 3

OS:StandardsInformation:Construction,
  {ef3d4142-7d1d-4708-88ea-71d61ec8d694}, !- Handle
  {182425e2-d88e-4b88-93e9-4e917d4da7ee}, !- Construction Name
  ExteriorRoof,                           !- Intended Surface Type
  IEAD;                                   !- Standards Construction Type

OS:Material,
  {d997e448-e305-4136-b45c-5b977ded500e}, !- Handle
  Roof Insulation [21],                   !- Name
  MediumRough,                            !- Roughness
  0.2105,                                 !- Thickness {m}
  0.049,                                  !- Conductivity {W/m-K}
  265,                                    !- Density {kg/m3}
  836.800000000001,                       !- Specific Heat {J/kg-K}
  0.9,                                    !- Thermal Absorptance
  0.7,                                    !- Solar Absorptance
  0.7;                                    !- Visible Absorptance

OS:Construction,
  {d944f73b-ed8f-4889-b38f-437a9c85afbd}, !- Handle
  ASHRAE 189.1-2009 ExtRoof IEAD ClimateZone 6, !- Name
  ,                                       !- Surface Rendering Name
  {c6fcb4ec-db7e-4aa6-868a-ab1e89a83a1e}, !- Layer 1
  {d9a201a9-6566-4600-bcbb-defd8a061781}, !- Layer 2
  {22e5c79b-e294-4330-825f-fee208f663d8}; !- Layer 3

OS:StandardsInformation:Construction,
  {cb38be70-f41c-4062-9755-6b60bf3ee84f}, !- Handle
  {d944f73b-ed8f-4889-b38f-437a9c85afbd}, !- Construction Name
  ExteriorRoof,                           !- Intended Surface Type
  IEAD;                                   !- Standards Construction Type

OS:Material,
  {d9a201a9-6566-4600-bcbb-defd8a061781}, !- Handle
  Roof Insulation [24],                   !- Name
  MediumRough,                            !- Roughness
  0.260100000000001,                      !- Thickness {m}
  0.049,                                  !- Conductivity {W/m-K}
  265,                                    !- Density {kg/m3}
  836.800000000001,                       !- Specific Heat {J/kg-K}
  0.9,                                    !- Thermal Absorptance
  0.7,                                    !- Solar Absorptance
  0.7;                                    !- Visible Absorptance

OS:Construction,
  {e6600a8f-8745-4875-80f8-24b2d16ab8ce}, !- Handle
  ASHRAE 189.1-2009 ExtRoof IEAD ClimateZone 7-8, !- Name
  ,                                       !- Surface Rendering Name
  {c6fcb4ec-db7e-4aa6-868a-ab1e89a83a1e}, !- Layer 1
  {f3264fa3-b25f-4fce-ad23-6e1f2233dab7}, !- Layer 2
  {22e5c79b-e294-4330-825f-fee208f663d8}; !- Layer 3

OS:StandardsInformation:Construction,
  {c0a609c5-a3e1-48d4-9c4c-e4769f2795cf}, !- Handle
  {e6600a8f-8745-4875-80f8-24b2d16ab8ce}, !- Construction Name
  ExteriorRoof,                           !- Intended Surface Type
  IEAD;                                   !- Standards Construction Type

OS:Material,
  {f3264fa3-b25f-4fce-ad23-6e1f2233dab7}, !- Handle
  Roof Insulation [26],                   !- Name
  MediumRough,                            !- Roughness
  0.2941,                                 !- Thickness {m}
  0.049,                                  !- Conductivity {W/m-K}
  265,                                    !- Density {kg/m3}
  836.800000000001,                       !- Specific Heat {J/kg-K}
  0.9,                                    !- Thermal Absorptance
  0.7,                                    !- Solar Absorptance
  0.7;                                    !- Visible Absorptance

OS:Construction,
  {c4c4ba12-cdc0-49ac-a28c-97ba93a43a3e}, !- Handle
  ASHRAE 189.1-2009 ExtRoof Metal ClimateZone 1, !- Name
  ,                                       !- Surface Rendering Name
  {6eac32af-131e-4b6b-9b87-f37a503bd08a}, !- Layer 1
  {f41bca27-c29e-4398-b9d2-5a8110f6fbbf}, !- Layer 2
  {22e5c79b-e294-4330-825f-fee208f663d8}; !- Layer 3

OS:StandardsInformation:Construction,
  {7c452aa0-c3ff-435e-9b6c-32c9d8ecf4e4}, !- Handle
  {c4c4ba12-cdc0-49ac-a28c-97ba93a43a3e}, !- Construction Name
  ExteriorRoof,                           !- Intended Surface Type
  Metal;                                  !- Standards Construction Type

OS:Material,
  {6eac32af-131e-4b6b-9b87-f37a503bd08a}, !- Handle
  Metal Roofing,                          !- Name
  MediumSmooth,                           !- Roughness
  0.0015,                                 !- Thickness {m}
  45.006,                                 !- Conductivity {W/m-K}
  7680,                                   !- Density {kg/m3}
  418.4,                                  !- Specific Heat {J/kg-K}
  0.9,                                    !- Thermal Absorptance
  0.6,                                    !- Solar Absorptance
  0.6;                                    !- Visible Absorptance

OS:Material,
  {f41bca27-c29e-4398-b9d2-5a8110f6fbbf}, !- Handle
  Roof Insulation [19],                   !- Name
  MediumRough,                            !- Roughness
  0.1868,                                 !- Thickness {m}
  0.049,                                  !- Conductivity {W/m-K}
  265,                                    !- Density {kg/m3}
  836.800000000001,                       !- Specific Heat {J/kg-K}
  0.9,                                    !- Thermal Absorptance
  0.7,                                    !- Solar Absorptance
  0.7;                                    !- Visible Absorptance

OS:Construction,
  {07d4e891-ec23-40d9-ab09-550c262dfb57}, !- Handle
  ASHRAE 189.1-2009 ExtRoof Metal ClimateZone 2-5, !- Name
  ,                                       !- Surface Rendering Name
  {6eac32af-131e-4b6b-9b87-f37a503bd08a}, !- Layer 1
  {45f7be83-793e-4c0e-abc4-2132c6395c0e}, !- Layer 2
  {22e5c79b-e294-4330-825f-fee208f663d8}; !- Layer 3

OS:StandardsInformation:Construction,
  {474a6293-9991-4bb8-a881-c25ab0b29d36}, !- Handle
  {07d4e891-ec23-40d9-ab09-550c262dfb57}, !- Construction Name
  ExteriorRoof,                           !- Intended Surface Type
  Metal;                                  !- Standards Construction Type

OS:Material,
  {45f7be83-793e-4c0e-abc4-2132c6395c0e}, !- Handle
  Roof Insulation [22],                   !- Name
  MediumRough,                            !- Roughness
  0.2358,                                 !- Thickness {m}
  0.049,                                  !- Conductivity {W/m-K}
  265,                                    !- Density {kg/m3}
  836.800000000001,                       !- Specific Heat {J/kg-K}
  0.9,                                    !- Thermal Absorptance
  0.7,                                    !- Solar Absorptance
  0.7;                                    !- Visible Absorptance

OS:Construction,
  {a77fb1e8-5eba-4bae-aea5-c4e47a58f4b9}, !- Handle
  ASHRAE 189.1-2009 ExtRoof Metal ClimateZone 6, !- Name
  ,                                       !- Surface Rendering Name
  {6eac32af-131e-4b6b-9b87-f37a503bd08a}, !- Layer 1
  {d49e2b02-410f-4452-9f56-d8bc7cae852f}, !- Layer 2
  {22e5c79b-e294-4330-825f-fee208f663d8}; !- Layer 3

OS:StandardsInformation:Construction,
  {39b5dc57-a8ac-448b-81d5-51a08629c655}, !- Handle
  {a77fb1e8-5eba-4bae-aea5-c4e47a58f4b9}, !- Construction Name
  ExteriorRoof,                           !- Intended Surface Type
  Metal;                                  !- Standards Construction Type

OS:Material,
  {d49e2b02-410f-4452-9f56-d8bc7cae852f}, !- Handle
  Roof Insulation [25],                   !- Name
  MediumRough,                            !- Roughness
  0.263,                                  !- Thickness {m}
  0.049,                                  !- Conductivity {W/m-K}
  265,                                    !- Density {kg/m3}
  836.800000000001,                       !- Specific Heat {J/kg-K}
  0.9,                                    !- Thermal Absorptance
  0.7,                                    !- Solar Absorptance
  0.7;                                    !- Visible Absorptance

OS:Construction,
  {3f8f771e-0066-4dac-a6b3-0b3bd53f25b1}, !- Handle
  ASHRAE 189.1-2009 ExtRoof Metal ClimateZone 7-8, !- Name
  ,                                       !- Surface Rendering Name
  {6eac32af-131e-4b6b-9b87-f37a503bd08a}, !- Layer 1
  {32ca860e-a083-406d-84a6-b4000484d5fb}, !- Layer 2
  {22e5c79b-e294-4330-825f-fee208f663d8}; !- Layer 3

OS:StandardsInformation:Construction,
  {172eeb79-df25-4f2d-abb0-33ca5ccf4cac}, !- Handle
  {3f8f771e-0066-4dac-a6b3-0b3bd53f25b1}, !- Construction Name
  ExteriorRoof,                           !- Intended Surface Type
  Metal;                                  !- Standards Construction Type

OS:Material,
  {32ca860e-a083-406d-84a6-b4000484d5fb}, !- Handle
  Roof Insulation [27],                   !- Name
  MediumRough,                            !- Roughness
  0.297000000000001,                      !- Thickness {m}
  0.049,                                  !- Conductivity {W/m-K}
  265,                                    !- Density {kg/m3}
  836.800000000001,                       !- Specific Heat {J/kg-K}
  0.9,                                    !- Thermal Absorptance
  0.7,                                    !- Solar Absorptance
  0.7;                                    !- Visible Absorptance

OS:Construction,
  {6cf20e4b-9cc9-46b4-840c-36422364ae94}, !- Handle
  ASHRAE 189.1-2009 ExtWall Mass ClimateZone 1, !- Name
  ,                                       !- Surface Rendering Name
  {e6a0b72d-c8b5-492b-9af2-6b4eea9522cf}, !- Layer 1
  {7746f026-d1e8-4025-a25c-1623dfd74379}, !- Layer 2
  {1f64aff8-2fbd-4215-aab3-3a9f1f679651}, !- Layer 3
  {4ee0d5bb-1c5a-4a9d-91ac-6f3b666a6ebf}; !- Layer 4

OS:StandardsInformation:Construction,
  {7c6520a4-4ed6-4a1b-979a-37ee01f6b095}, !- Handle
  {6cf20e4b-9cc9-46b4-840c-36422364ae94}, !- Construction Name
  ExteriorWall,                           !- Intended Surface Type
  Mass;                                   !- Standards Construction Type

OS:Material,
  {e6a0b72d-c8b5-492b-9af2-6b4eea9522cf}, !- Handle
  1IN Stucco,                             !- Name
  Smooth,                                 !- Roughness
  0.0253,                                 !- Thickness {m}
  0.691799999999999,                      !- Conductivity {W/m-K}
  1858,                                   !- Density {kg/m3}
  836.999999999999,                       !- Specific Heat {J/kg-K}
  0.9,                                    !- Thermal Absorptance
  0.92,                                   !- Solar Absorptance
  0.92;                                   !- Visible Absorptance

OS:Material,
  {7746f026-d1e8-4025-a25c-1623dfd74379}, !- Handle
  8IN Concrete HW,                        !- Name
  MediumRough,                            !- Roughness
  0.2033,                                 !- Thickness {m}
  1.72959999999999,                       !- Conductivity {W/m-K}
  2242.99999999999,                       !- Density {kg/m3}
  836.999999999999,                       !- Specific Heat {J/kg-K}
  0.9,                                    !- Thermal Absorptance
  0.65,                                   !- Solar Absorptance
  0.65;                                   !- Visible Absorptance

OS:Material,
  {1f64aff8-2fbd-4215-aab3-3a9f1f679651}, !- Handle
  Wall Insulation [31],                   !- Name
  MediumRough,                            !- Roughness
  0.0337000000000001,                     !- Thickness {m}
  0.0432,                                 !- Conductivity {W/m-K}
  91,                                     !- Density {kg/m3}
  836.999999999999,                       !- Specific Heat {J/kg-K}
  0.9,                                    !- Thermal Absorptance
  0.5,                                    !- Solar Absorptance
  0.5;                                    !- Visible Absorptance

OS:Construction,
  {4e1aad68-528b-45ab-b8b5-c5e2b574b121}, !- Handle
  ASHRAE 189.1-2009 ExtWall Mass ClimateZone 2, !- Name
  ,                                       !- Surface Rendering Name
  {e6a0b72d-c8b5-492b-9af2-6b4eea9522cf}, !- Layer 1
  {7746f026-d1e8-4025-a25c-1623dfd74379}, !- Layer 2
  {fa1265c7-7e25-43b7-92d2-edc2bd7f9554}, !- Layer 3
  {4ee0d5bb-1c5a-4a9d-91ac-6f3b666a6ebf}; !- Layer 4

OS:StandardsInformation:Construction,
  {21af9e45-fc00-42a8-9d41-4dfec14150b8}, !- Handle
  {4e1aad68-528b-45ab-b8b5-c5e2b574b121}, !- Construction Name
  ExteriorWall,                           !- Intended Surface Type
  Mass;                                   !- Standards Construction Type

OS:Material,
  {fa1265c7-7e25-43b7-92d2-edc2bd7f9554}, !- Handle
  Wall Insulation [35],                   !- Name
  MediumRough,                            !- Roughness
  0.0452,                                 !- Thickness {m}
  0.0432,                                 !- Conductivity {W/m-K}
  91,                                     !- Density {kg/m3}
  836.999999999999,                       !- Specific Heat {J/kg-K}
  0.9,                                    !- Thermal Absorptance
  0.5,                                    !- Solar Absorptance
  0.5;                                    !- Visible Absorptance

OS:Construction,
  {8c69d657-49a8-48b5-9825-3d5bcfdf9a27}, !- Handle
  ASHRAE 189.1-2009 ExtWall Mass ClimateZone 3, !- Name
  ,                                       !- Surface Rendering Name
  {e6a0b72d-c8b5-492b-9af2-6b4eea9522cf}, !- Layer 1
  {7746f026-d1e8-4025-a25c-1623dfd74379}, !- Layer 2
  {714175be-7cc7-411d-ba74-b4a9749efaa1}, !- Layer 3
  {4ee0d5bb-1c5a-4a9d-91ac-6f3b666a6ebf}; !- Layer 4

OS:StandardsInformation:Construction,
  {7ae5eb34-6aaf-4956-850c-ed99d7073d1a}, !- Handle
  {8c69d657-49a8-48b5-9825-3d5bcfdf9a27}, !- Construction Name
  ExteriorWall,                           !- Intended Surface Type
  Mass;                                   !- Standards Construction Type

OS:Material,
  {714175be-7cc7-411d-ba74-b4a9749efaa1}, !- Handle
  Wall Insulation [36],                   !- Name
  MediumRough,                            !- Roughness
  0.0565999999999999,                     !- Thickness {m}
  0.0432,                                 !- Conductivity {W/m-K}
  91,                                     !- Density {kg/m3}
  836.999999999999,                       !- Specific Heat {J/kg-K}
  0.9,                                    !- Thermal Absorptance
  0.5,                                    !- Solar Absorptance
  0.5;                                    !- Visible Absorptance

OS:Construction,
  {46921596-19ef-4c08-bbe1-cd0c35aeab92}, !- Handle
  ASHRAE 189.1-2009 ExtWall Mass ClimateZone 4, !- Name
  ,                                       !- Surface Rendering Name
  {e6a0b72d-c8b5-492b-9af2-6b4eea9522cf}, !- Layer 1
  {7746f026-d1e8-4025-a25c-1623dfd74379}, !- Layer 2
  {57995a44-16fd-47b3-8010-d706fbcd10f6}, !- Layer 3
  {4ee0d5bb-1c5a-4a9d-91ac-6f3b666a6ebf}; !- Layer 4

OS:StandardsInformation:Construction,
  {33266fbb-b9cd-42f9-8661-fa9146568826}, !- Handle
  {46921596-19ef-4c08-bbe1-cd0c35aeab92}, !- Construction Name
  ExteriorWall,                           !- Intended Surface Type
  Mass;                                   !- Standards Construction Type

OS:Material,
  {57995a44-16fd-47b3-8010-d706fbcd10f6}, !- Handle
  Wall Insulation [37],                   !- Name
  MediumRough,                            !- Roughness
  0.0680999999999999,                     !- Thickness {m}
  0.0432,                                 !- Conductivity {W/m-K}
  91,                                     !- Density {kg/m3}
  836.999999999999,                       !- Specific Heat {J/kg-K}
  0.9,                                    !- Thermal Absorptance
  0.5,                                    !- Solar Absorptance
  0.5;                                    !- Visible Absorptance

OS:Construction,
  {abdb4166-751b-475e-9abf-6f6e50d72205}, !- Handle
  ASHRAE 189.1-2009 ExtWall Mass ClimateZone 5, !- Name
  ,                                       !- Surface Rendering Name
  {e6a0b72d-c8b5-492b-9af2-6b4eea9522cf}, !- Layer 1
  {7746f026-d1e8-4025-a25c-1623dfd74379}, !- Layer 2
  {c641efa0-38d6-4162-a804-df39baec1d06}, !- Layer 3
  {4ee0d5bb-1c5a-4a9d-91ac-6f3b666a6ebf}; !- Layer 4

OS:StandardsInformation:Construction,
  {4b152660-504a-4dab-832c-f4d71c3687ef}, !- Handle
  {abdb4166-751b-475e-9abf-6f6e50d72205}, !- Construction Name
  ExteriorWall,                           !- Intended Surface Type
  Mass;                                   !- Standards Construction Type

OS:Material,
  {c641efa0-38d6-4162-a804-df39baec1d06}, !- Handle
  Wall Insulation [40],                   !- Name
  MediumRough,                            !- Roughness
  0.0793999999999999,                     !- Thickness {m}
  0.0432,                                 !- Conductivity {W/m-K}
  91,                                     !- Density {kg/m3}
  836.999999999999,                       !- Specific Heat {J/kg-K}
  0.9,                                    !- Thermal Absorptance
  0.5,                                    !- Solar Absorptance
  0.5;                                    !- Visible Absorptance

OS:Construction,
  {4b322608-8d19-42af-87c8-903af5949e30}, !- Handle
  ASHRAE 189.1-2009 ExtWall Mass ClimateZone 6, !- Name
  ,                                       !- Surface Rendering Name
  {e6a0b72d-c8b5-492b-9af2-6b4eea9522cf}, !- Layer 1
  {7746f026-d1e8-4025-a25c-1623dfd74379}, !- Layer 2
  {503cb903-d623-440f-9475-de2fe2117ba7}, !- Layer 3
  {4ee0d5bb-1c5a-4a9d-91ac-6f3b666a6ebf}; !- Layer 4

OS:StandardsInformation:Construction,
  {5e7ab080-259a-4fa8-8de6-7380a28f419f}, !- Handle
  {4b322608-8d19-42af-87c8-903af5949e30}, !- Construction Name
  ExteriorWall,                           !- Intended Surface Type
  Mass;                                   !- Standards Construction Type

OS:Material,
  {503cb903-d623-440f-9475-de2fe2117ba7}, !- Handle
  Wall Insulation [42],                   !- Name
  MediumRough,                            !- Roughness
  0.0913999999999999,                     !- Thickness {m}
  0.0432,                                 !- Conductivity {W/m-K}
  91,                                     !- Density {kg/m3}
  836.999999999999,                       !- Specific Heat {J/kg-K}
  0.9,                                    !- Thermal Absorptance
  0.5,                                    !- Solar Absorptance
  0.5;                                    !- Visible Absorptance

OS:Construction,
  {3583e1a8-ca9b-4baa-916c-2d36595fafd4}, !- Handle
  ASHRAE 189.1-2009 ExtWall Mass ClimateZone 7-8, !- Name
  ,                                       !- Surface Rendering Name
  {e6a0b72d-c8b5-492b-9af2-6b4eea9522cf}, !- Layer 1
  {7746f026-d1e8-4025-a25c-1623dfd74379}, !- Layer 2
  {c491c047-41a6-46b7-a7ff-69194ea482db}, !- Layer 3
  {4ee0d5bb-1c5a-4a9d-91ac-6f3b666a6ebf}; !- Layer 4

OS:StandardsInformation:Construction,
  {e971766f-8eec-4e97-9819-b57176dc188c}, !- Handle
  {3583e1a8-ca9b-4baa-916c-2d36595fafd4}, !- Construction Name
  ExteriorWall,                           !- Intended Surface Type
  Mass;                                   !- Standards Construction Type

OS:Material,
  {c491c047-41a6-46b7-a7ff-69194ea482db}, !- Handle
  Wall Insulation [44],                   !- Name
  MediumRough,                            !- Roughness
  0.1104,                                 !- Thickness {m}
  0.0432,                                 !- Conductivity {W/m-K}
  91,                                     !- Density {kg/m3}
  836.999999999999,                       !- Specific Heat {J/kg-K}
  0.9,                                    !- Thermal Absorptance
  0.5,                                    !- Solar Absorptance
  0.5;                                    !- Visible Absorptance

OS:Construction,
  {850f48d0-c008-4e63-9d51-4adea245192e}, !- Handle
  ASHRAE 189.1-2009 ExtWall Mass ClimateZone alt-res 1, !- Name
  ,                                       !- Surface Rendering Name
  {e6a0b72d-c8b5-492b-9af2-6b4eea9522cf}, !- Layer 1
  {7746f026-d1e8-4025-a25c-1623dfd74379}, !- Layer 2
  {fa1265c7-7e25-43b7-92d2-edc2bd7f9554}, !- Layer 3
  {4ee0d5bb-1c5a-4a9d-91ac-6f3b666a6ebf}; !- Layer 4

OS:StandardsInformation:Construction,
  {3d6b3466-5f30-4195-b3e6-65358c4e52ec}, !- Handle
  {850f48d0-c008-4e63-9d51-4adea245192e}, !- Construction Name
  ExteriorWall,                           !- Intended Surface Type
  Mass;                                   !- Standards Construction Type

OS:Construction,
  {da36d9ba-604a-4f40-a873-54005a3b616f}, !- Handle
  ASHRAE 189.1-2009 ExtWall Mass ClimateZone alt-res 2, !- Name
  ,                                       !- Surface Rendering Name
  {e6a0b72d-c8b5-492b-9af2-6b4eea9522cf}, !- Layer 1
  {7746f026-d1e8-4025-a25c-1623dfd74379}, !- Layer 2
  {714175be-7cc7-411d-ba74-b4a9749efaa1}, !- Layer 3
  {4ee0d5bb-1c5a-4a9d-91ac-6f3b666a6ebf}; !- Layer 4

OS:StandardsInformation:Construction,
  {82743a91-442f-4ec3-b9e3-0cb42661acc6}, !- Handle
  {da36d9ba-604a-4f40-a873-54005a3b616f}, !- Construction Name
  ExteriorWall,                           !- Intended Surface Type
  Mass;                                   !- Standards Construction Type

OS:Construction,
  {8bc28286-c058-46c5-b5a1-712210503f83}, !- Handle
  ASHRAE 189.1-2009 ExtWall Mass ClimateZone alt-res 3, !- Name
  ,                                       !- Surface Rendering Name
  {e6a0b72d-c8b5-492b-9af2-6b4eea9522cf}, !- Layer 1
  {7746f026-d1e8-4025-a25c-1623dfd74379}, !- Layer 2
  {57995a44-16fd-47b3-8010-d706fbcd10f6}, !- Layer 3
  {4ee0d5bb-1c5a-4a9d-91ac-6f3b666a6ebf}; !- Layer 4

OS:StandardsInformation:Construction,
  {f097a313-a57d-4e0a-aa06-c61b0bbaef84}, !- Handle
  {8bc28286-c058-46c5-b5a1-712210503f83}, !- Construction Name
  ExteriorWall,                           !- Intended Surface Type
  Mass;                                   !- Standards Construction Type

OS:Construction,
  {bac67769-8d28-4ffa-9c4a-9813020bd0a1}, !- Handle
  ASHRAE 189.1-2009 ExtWall Mass ClimateZone alt-res 4, !- Name
  ,                                       !- Surface Rendering Name
  {e6a0b72d-c8b5-492b-9af2-6b4eea9522cf}, !- Layer 1
  {7746f026-d1e8-4025-a25c-1623dfd74379}, !- Layer 2
  {c641efa0-38d6-4162-a804-df39baec1d06}, !- Layer 3
  {4ee0d5bb-1c5a-4a9d-91ac-6f3b666a6ebf}; !- Layer 4

OS:StandardsInformation:Construction,
  {11c4e738-dba7-4de9-ae7c-a6873cbf16d0}, !- Handle
  {bac67769-8d28-4ffa-9c4a-9813020bd0a1}, !- Construction Name
  ExteriorWall,                           !- Intended Surface Type
  Mass;                                   !- Standards Construction Type

OS:Construction,
  {24a8b4df-95c1-4cbe-aa74-0555c1b3abe3}, !- Handle
  ASHRAE 189.1-2009 ExtWall Mass ClimateZone alt-res 5, !- Name
  ,                                       !- Surface Rendering Name
  {e6a0b72d-c8b5-492b-9af2-6b4eea9522cf}, !- Layer 1
  {7746f026-d1e8-4025-a25c-1623dfd74379}, !- Layer 2
  {503cb903-d623-440f-9475-de2fe2117ba7}, !- Layer 3
  {4ee0d5bb-1c5a-4a9d-91ac-6f3b666a6ebf}; !- Layer 4

OS:StandardsInformation:Construction,
  {c72f7a33-afdd-482d-aae8-9d4e7d229058}, !- Handle
  {24a8b4df-95c1-4cbe-aa74-0555c1b3abe3}, !- Construction Name
  ExteriorWall,                           !- Intended Surface Type
  Mass;                                   !- Standards Construction Type

OS:Construction,
  {00a90bf7-ae9e-474c-9e3e-afa5ff257b12}, !- Handle
  ASHRAE 189.1-2009 ExtWall Mass ClimateZone alt-res 6, !- Name
  ,                                       !- Surface Rendering Name
  {e6a0b72d-c8b5-492b-9af2-6b4eea9522cf}, !- Layer 1
  {7746f026-d1e8-4025-a25c-1623dfd74379}, !- Layer 2
  {c491c047-41a6-46b7-a7ff-69194ea482db}, !- Layer 3
  {4ee0d5bb-1c5a-4a9d-91ac-6f3b666a6ebf}; !- Layer 4

OS:StandardsInformation:Construction,
  {1b5019f9-a631-4bc6-bec1-930a17ea609a}, !- Handle
  {00a90bf7-ae9e-474c-9e3e-afa5ff257b12}, !- Construction Name
  ExteriorWall,                           !- Intended Surface Type
  Mass;                                   !- Standards Construction Type

OS:Construction,
  {d1c89a1e-e259-4a43-b270-60e4e60aafef}, !- Handle
  ASHRAE 189.1-2009 ExtWall Mass ClimateZone alt-res 7, !- Name
  ,                                       !- Surface Rendering Name
  {e6a0b72d-c8b5-492b-9af2-6b4eea9522cf}, !- Layer 1
  {7746f026-d1e8-4025-a25c-1623dfd74379}, !- Layer 2
  {c491c047-41a6-46b7-a7ff-69194ea482db}, !- Layer 3
  {4ee0d5bb-1c5a-4a9d-91ac-6f3b666a6ebf}; !- Layer 4

OS:StandardsInformation:Construction,
  {e230a535-8979-491d-aefa-b950c7191ff7}, !- Handle
  {d1c89a1e-e259-4a43-b270-60e4e60aafef}, !- Construction Name
  ExteriorWall,                           !- Intended Surface Type