
OS:Version,
  {6614cb22-1ec1-459b-8961-15d3bd5d839a}, !- Handle
  1.4.0;                                  !- Version Identifier

OS:Construction,
  {722e25a0-48e7-4dd0-8f55-050ac9c7c3b5}, !- Handle
  ASHRAE 189.1-2009 AtticFloor ClimateZone 1-8, !- Name
  ,                                       !- Surface Rendering Name
  {2ae9bd10-e5f0-4cf3-984e-951ff1cd7eda}, !- Layer 1
  {56804dd7-ff3a-40be-97de-d49651546f0a}, !- Layer 2
  {2ae9bd10-e5f0-4cf3-984e-951ff1cd7eda}; !- Layer 3

OS:StandardsInformation:Construction,
  {b795acb6-6433-43c2-b485-b83cf3f738b6}, !- Handle
  {722e25a0-48e7-4dd0-8f55-050ac9c7c3b5}, !- Construction Name
  AtticFloor,                             !- Intended Surface Type
  WoodFramed;                             !- Standards Construction Type

OS:Material,
  {2ae9bd10-e5f0-4cf3-984e-951ff1cd7eda}, !- Handle
  1/2IN Gypsum,                           !- Name
  Smooth,                                 !- Roughness
  0.0127,                                 !- Thickness {m}
  0.16,                                   !- Conductivity {W/m-K}
  784.9,                                  !- Density {kg/m3}
  830.000000000001,                       !- Specific Heat {J/kg-K}
  0.9,                                    !- Thermal Absorptance
  0.4,                                    !- Solar Absorptance
  0.4;                                    !- Visible Absorptance

OS:Material,
  {56804dd7-ff3a-40be-97de-d49651546f0a}, !- Handle
  AtticFloor Insulation,                  !- Name
  MediumRough,                            !- Roughness
  0.2379,                                 !- Thickness {m}
  0.049,                                  !- Conductivity {W/m-K}
  265,                                    !- Density {kg/m3}
  836.800000000001,                       !- Specific Heat {J/kg-K}
  0.9,                                    !- Thermal Absorptance
  0.7,                                    !- Solar Absorptance
  0.7;                                    !- Visible Absorptance

OS:Construction,
  {297421bc-f39b-4341-aab0-13973df8280a}, !- Handle
  ASHRAE 189.1-2009 ExtRoof IEAD ClimateZone 1, !- Name
  ,                                       !- Surface Rendering Name
  {b9f40780-7ad4-4504-aae7-5fdc496ba4a8}, !- Layer 1
  {d5e32046-cf81-4a10-a84f-f038ef0f2760}, !- Layer 2
  {ae10ad47-f5a5-48a6-a3da-d9a2ff312d4d}; !- Layer 3

OS:StandardsInformation:Construction,
  {3e4b2b22-6357-4b42-8dd1-f22a5212d1ad}, !- Handle
  {297421bc-f39b-4341-aab0-13973df8280a}, !- Construction Name
  ExteriorRoof,                           !- Intended Surface Type
  IEAD;                                   !- Standards Construction Type

OS:Material,
  {b9f40780-7ad4-4504-aae7-5fdc496ba4a8}, !- Handle
  Roof Membrane,                          !- Name
  VeryRough,                              !- Roughness
  0.0095,                                 !- Thickness {m}
  0.16,                                   !- Conductivity {W/m-K}
  1121.29,                                !- Density {kg/m3}
  1460,                                   !- Specific Heat {J/kg-K}
  0.9,                                    !- Thermal Absorptance
  0.7,                                    !- Solar Absorptance
  0.7;                                    !- Visible Absorptance

OS:Material,
  {d5e32046-cf81-4a10-a84f-f038ef0f2760}, !- Handle
  Roof Insulation [18],                   !- Name
  MediumRough,                            !- Roughness
  0.1693,                                 !- Thickness {m}
  0.049,                                  !- Conductivity {W/m-K}
  265,                                    !- Density {kg/m3}
  836.800000000001,                       !- Specific Heat {J/kg-K}
  0.9,                                    !- Thermal Absorptance
  0.7,                                    !- Solar Absorptance
  0.7;                                    !- Visible Absorptance

OS:Material,
  {ae10ad47-f5a5-48a6-a3da-d9a2ff312d4d}, !- Handle
  Metal Decking,                          !- Name
  MediumSmooth,                           !- Roughness
  0.0015,                                 !- Thickness {m}
  45.006,                                 !- Conductivity {W/m-K}
  7680,                                   !- Density {kg/m3}
  418.4,                                  !- Specific Heat {J/kg-K}
  0.9,                                    !- Thermal Absorptance
  0.6,                                    !- Solar Absorptance
  0.6;                                    !- Visible Absorptance

OS:Construction,
  {f2b3ee70-ecb3-48b4-a019-ade93daf8e02}, !- Handle
  ASHRAE 189.1-2009 ExtRoof IEAD ClimateZone 2-5, !- Name
  ,                                       !- Surface Rendering Name
  {b9f40780-7ad4-4504-aae7-5fdc496ba4a8}, !- Layer 1
  {f4d2fcdb-565c-402f-a0e1-ebff90ebe0f9}, !- Layer 2
  {ae10ad47-f5a5-48a6-a3da-d9a2ff312d4d}; !- Layer 3

OS:StandardsInformation:Construction,
  {f301a3e5-eede-4750-bb99-f1d3c553e798}, !- Handle
  {f2b3ee70-ecb3-48b4-a019-ade93daf8e02}, !- Construction Name
  ExteriorRoof,                           !- Intended Surface Type
  IEAD;                                   !- Standards Construction Type

OS:Material,
  {f4d2fcdb-565c-402f-a0e1-ebff90ebe0f9}, !- Handle
  Roof Insulation [21],                   !- Name
  MediumRough,                            !- Roughness
  0.2105,                                 !- Thickness {m}
  0.049,                                  !- Conductivity {W/m-K}
  265,                                    !- Density {kg/m3}
  836.800000000001,                       !- Specific Heat {J/kg-K}
  0.9,                                    !- Thermal Absorptance
  0.7,                                    !- Solar Absorptance
  0.7;                                    !- Visible Absorptance

OS:Construction,
  {f9cd11ab-2986-4a76-8134-5db73e4f0e29}, !- Handle
  ASHRAE 189.1-2009 ExtRoof IEAD ClimateZone 6, !- Name
  ,                                       !- Surface Rendering Name
  {b9f40780-7ad4-4504-aae7-5fdc496ba4a8}, !- Layer 1
  {acd6572e-0b6f-4af2-ad12-adcdc6a6333b}, !- Layer 2
  {ae10ad47-f5a5-48a6-a3da-d9a2ff312d4d}; !- Layer 3

OS:StandardsInformation:Construction,
  {1e8745aa-158d-4895-a82e-86febc3ff730}, !- Handle
  {f9cd11ab-2986-4a76-8134-5db73e4f0e29}, !- Construction Name
  ExteriorRoof,                           !- Intended Surface Type
  IEAD;                                   !- Standards Construction Type

OS:Material,
  {acd6572e-0b6f-4af2-ad12-adcdc6a6333b}, !- Handle
  Roof Insulation [24],                   !- Name
  MediumRough,                            !- Roughness
  0.260100000000001,                      !- Thickness {m}
  0.049,                                  !- Conductivity {W/m-K}
  265,                                    !- Density {kg/m3}
  836.800000000001,                       !- Specific Heat {J/kg-K}
  0.9,                                    !- Thermal Absorptance
  0.7,                                    !- Solar Absorptance
  0.7;                                    !- Visible Absorptance

OS:Construction,
  {e054c27b-8558-4f64-9ab6-2c7c1633244a}, !- Handle
  ASHRAE 189.1-2009 ExtRoof IEAD ClimateZone 7-8, !- Name
  ,                                       !- Surface Rendering Name
  {b9f40780-7ad4-4504-aae7-5fdc496ba4a8}, !- Layer 1
  {0cdc6fe7-2b3c-46ef-9f84-0d84f6572371}, !- Layer 2
  {ae10ad47-f5a5-48a6-a3da-d9a2ff312d4d}; !- Layer 3

OS:StandardsInformation:Construction,
  {e8b27406-9b3c-48e9-8773-34c69dfdcf96}, !- Handle
  {e054c27b-8558-4f64-9ab6-2c7c1633244a}, !- Construction Name
  ExteriorRoof,                           !- Intended Surface Type
  IEAD;                                   !- Standards Construction Type

OS:Material,
  {0cdc6fe7-2b3c-46ef-9f84-0d84f6572371}, !- Handle
  Roof Insulation [26],                   !- Name
  MediumRough,                            !- Roughness
  0.2941,                                 !- Thickness {m}
  0.049,                                  !- Conductivity {W/m-K}
  265,                                    !- Density {kg/m3}
  836.800000000001,                       !- Specific Heat {J/kg-K}
  0.9,                                    !- Thermal Absorptance
  0.7,                                    !- Solar Absorptance
  0.7;                                    !- Visible Absorptance

OS:Construction,
  {88ffba9a-5619-448b-8fa2-f727d3334b77}, !- Handle
  ASHRAE 189.1-2009 ExtRoof Metal ClimateZone 1, !- Name
  ,                                       !- Surface Rendering Name
  {7a361339-266e-47d0-8ff8-e68755cc5d9b}, !- Layer 1
  {dd6e1508-9193-42f4-a51d-cbf701ec0d28}, !- Layer 2
  {ae10ad47-f5a5-48a6-a3da-d9a2ff312d4d}; !- Layer 3

OS:StandardsInformation:Construction,
  {7d2d07dd-250f-4a60-8f49-633087131263}, !- Handle
  {88ffba9a-5619-448b-8fa2-f727d3334b77}, !- Construction Name
  ExteriorRoof,                           !- Intended Surface Type
  Metal;                                  !- Standards Construction Type

OS:Material,
  {7a361339-266e-47d0-8ff8-e68755cc5d9b}, !- Handle
  Metal Roofing,                          !- Name
  MediumSmooth,                           !- Roughness
  0.0015,                                 !- Thickness {m}
  45.006,                                 !- Conductivity {W/m-K}
  7680,                                   !- Density {kg/m3}
  418.4,                                  !- Specific Heat {J/kg-K}
  0.9,                                    !- Thermal Absorptance
  0.6,                                    !- Solar Absorptance
  0.6;                                    !- Visible Absorptance

OS:Material,
  {dd6e1508-9193-42f4-a51d-cbf701ec0d28}, !- Handle
  Roof Insulation [19],                   !- Name
  MediumRough,                            !- Roughness
  0.1868,                                 !- Thickness {m}
  0.049,                                  !- Conductivity {W/m-K}
  265,                                    !- Density {kg/m3}
  836.800000000001,                       !- Specific Heat {J/kg-K}
  0.9,                                    !- Thermal Absorptance
  0.7,                                    !- Solar Absorptance
  0.7;                                    !- Visible Absorptance

OS:Construction,
  {8994ca00-a077-4d89-b005-fbd0a3c283dd}, !- Handle
  ASHRAE 189.1-2009 ExtRoof Metal ClimateZone 2-5, !- Name
  ,                                       !- Surface Rendering Name
  {7a361339-266e-47d0-8ff8-e68755cc5d9b}, !- Layer 1
  {eb1129bb-991a-471b-999c-fefbcf38ad19}, !- Layer 2
  {ae10ad47-f5a5-48a6-a3da-d9a2ff312d4d}; !- Layer 3

OS:StandardsInformation:Construction,
  {d3bdaed6-c24f-4734-81ec-bbf653c2dd74}, !- Handle
  {8994ca00-a077-4d89-b005-fbd0a3c283dd}, !- Construction Name
  ExteriorRoof,                           !- Intended Surface Type
  Metal;                                  !- Standards Construction Type

OS:Material,
  {eb1129bb-991a-471b-999c-fefbcf38ad19}, !- Handle
  Roof Insulation [22],                   !- Name
  MediumRough,                            !- Roughness
  0.2358,                                 !- Thickness {m}
  0.049,                                  !- Conductivity {W/m-K}
  265,                                    !- Density {kg/m3}
  836.800000000001,                       !- Specific Heat {J/kg-K}
  0.9,                                    !- Thermal Absorptance
  0.7,                                    !- Solar Absorptance
  0.7;                                    !- Visible Absorptance

OS:Construction,
  {edcc1700-e922-45de-9709-dfe54804f290}, !- Handle
  ASHRAE 189.1-2009 ExtRoof Metal ClimateZone 6, !- Name
  ,                                       !- Surface Rendering Name
  {7a361339-266e-47d0-8ff8-e68755cc5d9b}, !- Layer 1
  {974118b4-d347-4911-96df-68d89d66d86f}, !- Layer 2
  {ae10ad47-f5a5-48a6-a3da-d9a2ff312d4d}; !- Layer 3

OS:StandardsInformation:Construction,
  {60c73f50-b7f4-40fa-b117-ad7bf9a75f1d}, !- Handle
  {edcc1700-e922-45de-9709-dfe54804f290}, !- Construction Name
  ExteriorRoof,                           !- Intended Surface Type
  Metal;                                  !- Standards Construction Type

OS:Material,
  {974118b4-d347-4911-96df-68d89d66d86f}, !- Handle
  Roof Insulation [25],                   !- Name
  MediumRough,                            !- Roughness
  0.263,                                  !- Thickness {m}
  0.049,                                  !- Conductivity {W/m-K}
  265,                                    !- Density {kg/m3}
  836.800000000001,                       !- Specific Heat {J/kg-K}
  0.9,                                    !- Thermal Absorptance
  0.7,                                    !- Solar Absorptance
  0.7;                                    !- Visible Absorptance

OS:Construction,
  {edbc92a4-46cc-40d1-ae82-88409878d014}, !- Handle
  ASHRAE 189.1-2009 ExtRoof Metal ClimateZone 7-8, !- Name
  ,                                       !- Surface Rendering Name
  {7a361339-266e-47d0-8ff8-e68755cc5d9b}, !- Layer 1
  {17a5ece0-25a7-422c-b546-b97ea6754753}, !- Layer 2
  {ae10ad47-f5a5-48a6-a3da-d9a2ff312d4d}; !- Layer 3

OS:StandardsInformation:Construction,
  {d116de26-1571-4f95-9ae3-9102f646b4a4}, !- Handle
  {edbc92a4-46cc-40d1-ae82-88409878d014}, !- Construction Name
  ExteriorRoof,                           !- Intended Surface Type
  Metal;                                  !- Standards Construction Type

OS:Material,
  {17a5ece0-25a7-422c-b546-b97ea6754753}, !- Handle
  Roof Insulation [27],                   !- Name
  MediumRough,                            !- Roughness
  0.297000000000001,                      !- Thickness {m}
  0.049,                                  !- Conductivity {W/m-K}
  265,                                    !- Density {kg/m3}
  836.800000000001,                       !- Specific Heat {J/kg-K}
  0.9,                                    !- Thermal Absorptance
  0.7,                                    !- Solar Absorptance
  0.7;                                    !- Visible Absorptance

OS:Construction,
  {c95acc7c-968e-4ce2-97a0-8172c5481eaa}, !- Handle
  ASHRAE 189.1-2009 ExtWall Mass ClimateZone 1, !- Name
  ,                                       !- Surface Rendering Name
  {841702ed-bb6e-4ab2-b29a-f2f82ac37fba}, !- Layer 1
  {a5e44aa8-a846-4453-aa0e-f5c2abe310e9}, !- Layer 2
  {348185f7-db55-498e-8b50-db69bea7b600}, !- Layer 3
  {2ae9bd10-e5f0-4cf3-984e-951ff1cd7eda}; !- Layer 4

OS:StandardsInformation:Construction,
  {4cf1ce45-f80c-44e4-8c3d-ce44d062d583}, !- Handle
  {c95acc7c-968e-4ce2-97a0-8172c5481eaa}, !- Construction Name
  ExteriorWall,                           !- Intended Surface Type
  Mass;                                   !- Standards Construction Type

OS:Material,
  {841702ed-bb6e-4ab2-b29a-f2f82ac37fba}, !- Handle
  1IN Stucco,                             !- Name
  Smooth,                                 !- Roughness
  0.0253,                                 !- Thickness {m}
  0.691799999999999,                      !- Conductivity {W/m-K}
  1858,                                   !- Density {kg/m3}
  836.999999999999,                       !- Specific Heat {J/kg-K}
  0.9,                                    !- Thermal Absorptance
  0.92,                                   !- Solar Absorptance
  0.92;                                   !- Visible Absorptance

OS:Material,
  {a5e44aa8-a846-4453-aa0e-f5c2abe310e9}, !- Handle
  8IN Concrete HW,                        !- Name
  MediumRough,                            !- Roughness
  0.2033,                                 !- Thickness {m}
  1.72959999999999,                       !- Conductivity {W/m-K}
  2242.99999999999,                       !- Density {kg/m3}
  836.999999999999,                       !- Specific Heat {J/kg-K}
  0.9,                                    !- Thermal Absorptance
  0.65,                                   !- Solar Absorptance
  0.65;                                   !- Visible Absorptance

OS:Material,
  {348185f7-db55-498e-8b50-db69bea7b600}, !- Handle
  Wall Insulation [31],                   !- Name
  MediumRough,                            !- Roughness
  0.0337000000000001,                     !- Thickness {m}
  0.0432,                                 !- Conductivity {W/m-K}
  91,                                     !- Density {kg/m3}
  836.999999999999,                       !- Specific Heat {J/kg-K}
  0.9,                                    !- Thermal Absorptance
  0.5,                                    !- Solar Absorptance
  0.5;                                    !- Visible Absorptance

OS:Construction,
  {6462ae15-31e0-484c-9537-e141fafffebd}, !- Handle
  ASHRAE 189.1-2009 ExtWall Mass ClimateZone 2, !- Name
  ,                                       !- Surface Rendering Name
  {841702ed-bb6e-4ab2-b29a-f2f82ac37fba}, !- Layer 1
  {a5e44aa8-a846-4453-aa0e-f5c2abe310e9}, !- Layer 2
  {cfc2bc0d-6819-423a-b848-24eb574edf9a}, !- Layer 3
  {2ae9bd10-e5f0-4cf3-984e-951ff1cd7eda}; !- Layer 4

OS:StandardsInformation:Construction,
  {7c8c044a-2dd9-41b6-bf20-3297c3a60ac1}, !- Handle
  {6462ae15-31e0-484c-9537-e141fafffebd}, !- Construction Name
  ExteriorWall,                           !- Intended Surface Type
  Mass;                                   !- Standards Construction Type

OS:Material,
  {cfc2bc0d-6819-423a-b848-24eb574edf9a}, !- Handle
  Wall Insulation [35],                   !- Name
  MediumRough,                            !- Roughness
  0.0452,                                 !- Thickness {m}
  0.0432,                                 !- Conductivity {W/m-K}
  91,                                     !- Density {kg/m3}
  836.999999999999,                       !- Specific Heat {J/kg-K}
  0.9,                                    !- Thermal Absorptance
  0.5,                                    !- Solar Absorptance
  0.5;                                    !- Visible Absorptance

OS:Construction,
  {beb205ae-7046-4bff-a55e-a6a20b4ca062}, !- Handle
  ASHRAE 189.1-2009 ExtWall Mass ClimateZone 3, !- Name
  ,                                       !- Surface Rendering Name
  {841702ed-bb6e-4ab2-b29a-f2f82ac37fba}, !- Layer 1
  {a5e44aa8-a846-4453-aa0e-f5c2abe310e9}, !- Layer 2
  {3be22e27-df83-4231-bf8a-088e83225fab}, !- Layer 3
  {2ae9bd10-e5f0-4cf3-984e-951ff1cd7eda}; !- Layer 4

OS:StandardsInformation:Construction,
  {ecb2bcdd-44ed-4d38-9b64-608e3fa4527b}, !- Handle
  {beb205ae-7046-4bff-a55e-a6a20b4ca062}, !- Construction Name
  ExteriorWall,                           !- Intended Surface Type
  Mass;                                   !- Standards Construction Type

OS:Material,
  {3be22e27-df83-4231-bf8a-088e83225fab}, !- Handle
  Wall Insulation [36],                   !- Name
  MediumRough,                            !- Roughness
  0.0565999999999999,                     !- Thickness {m}
  0.0432,                                 !- Conductivity {W/m-K}
  91,                                     !- Density {kg/m3}
  836.999999999999,                       !- Specific Heat {J/kg-K}
  0.9,                                    !- Thermal Absorptance
  0.5,                                    !- Solar Absorptance
  0.5;                                    !- Visible Absorptance

OS:Construction,
  {1f6e2a90-3533-4cb8-9d7c-9b7666541e9b}, !- Handle
  ASHRAE 189.1-2009 ExtWall Mass ClimateZone 4, !- Name
  ,                                       !- Surface Rendering Name
  {841702ed-bb6e-4ab2-b29a-f2f82ac37fba}, !- Layer 1
  {a5e44aa8-a846-4453-aa0e-f5c2abe310e9}, !- Layer 2
  {e78e8d73-208a-4a00-8072-98a8c5743f02}, !- Layer 3
  {2ae9bd10-e5f0-4cf3-984e-951ff1cd7eda}; !- Layer 4

OS:StandardsInformation:Construction,
  {9fd9c554-ff7d-4241-bab0-a413e22d669f}, !- Handle
  {1f6e2a90-3533-4cb8-9d7c-9b7666541e9b}, !- Construction Name
  ExteriorWall,                           !- Intended Surface Type
  Mass;                                   !- Standards Construction Type

OS:Material,
  {e78e8d73-208a-4a00-8072-98a8c5743f02}, !- Handle
  Wall Insulation [37],                   !- Name
  MediumRough,                            !- Roughness
  0.0680999999999999,                     !- Thickness {m}
  0.0432,                                 !- Conductivity {W/m-K}
  91,                                     !- Density {kg/m3}
  836.999999999999,                       !- Specific Heat {J/kg-K}
  0.9,                                    !- Thermal Absorptance
  0.5,                                    !- Solar Absorptance
  0.5;                                    !- Visible Absorptance

OS:Construction,
  {71a51e58-63f6-425f-8649-0ed06a0be258}, !- Handle
  ASHRAE 189.1-2009 ExtWall Mass ClimateZone 5, !- Name
  ,                                       !- Surface Rendering Name
  {841702ed-bb6e-4ab2-b29a-f2f82ac37fba}, !- Layer 1
  {a5e44aa8-a846-4453-aa0e-f5c2abe310e9}, !- Layer 2
  {75809afa-4ceb-459a-81e0-17eb20699c8a}, !- Layer 3
  {2ae9bd10-e5f0-4cf3-984e-951ff1cd7eda}; !- Layer 4

OS:StandardsInformation:Construction,
  {73c2fbbb-ed6b-4722-ae18-687346c04124}, !- Handle
  {71a51e58-63f6-425f-8649-0ed06a0be258}, !- Construction Name
  ExteriorWall,                           !- Intended Surface Type
  Mass;                                   !- Standards Construction Type

OS:Material,
  {75809afa-4ceb-459a-81e0-17eb20699c8a}, !- Handle
  Wall Insulation [40],                   !- Name
  MediumRough,                            !- Roughness
  0.0793999999999999,                     !- Thickness {m}
  0.0432,                                 !- Conductivity {W/m-K}
  91,                                     !- Density {kg/m3}
  836.999999999999,                       !- Specific Heat {J/kg-K}
  0.9,                                    !- Thermal Absorptance
  0.5,                                    !- Solar Absorptance
  0.5;                                    !- Visible Absorptance

OS:Construction,
  {a3c245e1-e448-42ff-9b53-5617ab3c5770}, !- Handle
  ASHRAE 189.1-2009 ExtWall Mass ClimateZone 6, !- Name
  ,                                       !- Surface Rendering Name
  {841702ed-bb6e-4ab2-b29a-f2f82ac37fba}, !- Layer 1
  {a5e44aa8-a846-4453-aa0e-f5c2abe310e9}, !- Layer 2
  {2f8ef523-cfa5-42eb-ac85-2514931a0c08}, !- Layer 3
  {2ae9bd10-e5f0-4cf3-984e-951ff1cd7eda}; !- Layer 4

OS:StandardsInformation:Construction,
  {f11d84ed-f0fe-4399-aecf-e68e9b9f2461}, !- Handle
  {a3c245e1-e448-42ff-9b53-5617ab3c5770}, !- Construction Name
  ExteriorWall,                           !- Intended Surface Type
  Mass;                                   !- Standards Construction Type

OS:Material,
  {2f8ef523-cfa5-42eb-ac85-2514931a0c08}, !- Handle
  Wall Insulation [42],                   !- Name
  MediumRough,                            !- Roughness
  0.0913999999999999,                     !- Thickness {m}
  0.0432,                                 !- Conductivity {W/m-K}
  91,                                     !- Density {kg/m3}
  836.999999999999,                       !- Specific Heat {J/kg-K}
  0.9,                                    !- Thermal Absorptance
  0.5,                                    !- Solar Absorptance
  0.5;                                    !- Visible Absorptance

OS:Construction,
  {1efade15-bb52-4f81-8c2d-5d4d79731395}, !- Handle
  ASHRAE 189.1-2009 ExtWall Mass ClimateZone 7-8, !- Name
  ,                                       !- Surface Rendering Name
  {841702ed-bb6e-4ab2-b29a-f2f82ac37fba}, !- Layer 1
  {a5e44aa8-a846-4453-aa0e-f5c2abe310e9}, !- Layer 2
  {f7c62dd8-47ea-4086-8abf-acd457a65f01}, !- Layer 3
  {2ae9bd10-e5f0-4cf3-984e-951ff1cd7eda}; !- Layer 4

OS:StandardsInformation:Construction,
  {f1b6f9ad-d1bb-4208-bd3c-89a087de3406}, !- Handle
  {1efade15-bb52-4f81-8c2d-5d4d79731395}, !- Construction Name
  ExteriorWall,                           !- Intended Surface Type
  Mass;                                   !- Standards Construction Type

OS:Material,
  {f7c62dd8-47ea-4086-8abf-acd457a65f01}, !- Handle
  Wall Insulation [44],                   !- Name
  MediumRough,                            !- Roughness
  0.1104,                                 !- Thickness {m}
  0.0432,                                 !- Conductivity {W/m-K}
  91,                                     !- Density {kg/m3}
  836.999999999999,                       !- Specific Heat {J/kg-K}
  0.9,                                    !- Thermal Absorptance
  0.5,                                    !- Solar Absorptance
  0.5;                                    !- Visible Absorptance

OS:Construction,
  {4b8e453d-1cc5-4021-9f46-4346c7d5c633}, !- Handle
  ASHRAE 189.1-2009 ExtWall Mass ClimateZone alt-res 1, !- Name
  ,                                       !- Surface Rendering Name
  {841702ed-bb6e-4ab2-b29a-f2f82ac37fba}, !- Layer 1
  {a5e44aa8-a846-4453-aa0e-f5c2abe310e9}, !- Layer 2
  {cfc2bc0d-6819-423a-b848-24eb574edf9a}, !- Layer 3
  {2ae9bd10-e5f0-4cf3-984e-951ff1cd7eda}; !- Layer 4

OS:StandardsInformation:Construction,
  {7ae53705-bc5c-4dfd-abe0-1803f5c80f8b}, !- Handle
  {4b8e453d-1cc5-4021-9f46-4346c7d5c633}, !- Construction Name
  ExteriorWall,                           !- Intended Surface Type
  Mass;                                   !- Standards Construction Type

OS:Construction,
  {98491620-9fa5-4603-bedd-a1582bebd6fa}, !- Handle
  ASHRAE 189.1-2009 ExtWall Mass ClimateZone alt-res 2, !- Name
  ,                                       !- Surface Rendering Name
  {841702ed-bb6e-4ab2-b29a-f2f82ac37fba}, !- Layer 1
  {a5e44aa8-a846-4453-aa0e-f5c2abe310e9}, !- Layer 2
  {3be22e27-df83-4231-bf8a-088e83225fab}, !- Layer 3
  {2ae9bd10-e5f0-4cf3-984e-951ff1cd7eda}; !- Layer 4

OS:StandardsInformation:Construction,
  {f6e88d05-e93a-4849-b35a-0f34815635bb}, !- Handle
  {98491620-9fa5-4603-bedd-a1582bebd6fa}, !- Construction Name
  ExteriorWall,                           !- Intended Surface Type
  Mass;                                   !- Standards Construction Type

OS:Construction,
  {8540aacd-5f16-4ea2-8321-e2648f3119ef}, !- Handle
  ASHRAE 189.1-2009 ExtWall Mass ClimateZone alt-res 3, !- Name
  ,                                       !- Surface Rendering Name
  {841702ed-bb6e-4ab2-b29a-f2f82ac37fba}, !- Layer 1
  {a5e44aa8-a846-4453-aa0e-f5c2abe310e9}, !- Layer 2
  {e78e8d73-208a-4a00-8072-98a8c5743f02}, !- Layer 3
  {2ae9bd10-e5f0-4cf3-984e-951ff1cd7eda}; !- Layer 4

OS:StandardsInformation:Construction,
  {a0af11ea-a229-4e4c-a7a6-672fd7ccd2d1}, !- Handle
  {8540aacd-5f16-4ea2-8321-e2648f3119ef}, !- Construction Name
  ExteriorWall,                           !- Intended Surface Type
  Mass;                                   !- Standards Construction Type

OS:Construction,
  {66aa3c40-0879-49fe-bf8e-0db190fe2ecb}, !- Handle
  ASHRAE 189.1-2009 ExtWall Mass ClimateZone alt-res 4, !- Name
  ,                                       !- Surface Rendering Name
  {841702ed-bb6e-4ab2-b29a-f2f82ac37fba}, !- Layer 1
  {a5e44aa8-a846-4453-aa0e-f5c2abe310e9}, !- Layer 2
  {75809afa-4ceb-459a-81e0-17eb20699c8a}, !- Layer 3
  {2ae9bd10-e5f0-4cf3-984e-951ff1cd7eda}; !- Layer 4

OS:StandardsInformation:Construction,
  {fe619b2f-024f-48c5-8b59-125ab35760e6}, !- Handle
  {66aa3c40-0879-49fe-bf8e-0db190fe2ecb}, !- Construction Name
  ExteriorWall,                           !- Intended Surface Type
  Mass;                                   !- Standards Construction Type

OS:Construction,
  {d5e8b310-2644-4999-a307-e17ad79dd281}, !- Handle
  ASHRAE 189.1-2009 ExtWall Mass ClimateZone alt-res 5, !- Name
  ,                                       !- Surface Rendering Name
  {841702ed-bb6e-4ab2-b29a-f2f82ac37fba}, !- Layer 1
  {a5e44aa8-a846-4453-aa0e-f5c2abe310e9}, !- Layer 2
  {2f8ef523-cfa5-42eb-ac85-2514931a0c08}, !- Layer 3
  {2ae9bd10-e5f0-4cf3-984e-951ff1cd7eda}; !- Layer 4

OS:StandardsInformation:Construction,
  {064d2633-7f23-411f-a9b0-df28c65af56b}, !- Handle
  {d5e8b310-2644-4999-a307-e17ad79dd281}, !- Construction Name
  ExteriorWall,                           !- Intended Surface Type
  Mass;                                   !- Standards Construction Type

OS:Construction,
  {73fd68b3-9d43-41b5-9940-df2e6d657eff}, !- Handle
  ASHRAE 189.1-2009 ExtWall Mass ClimateZone alt-res 6, !- Name
  ,                                       !- Surface Rendering Name
  {841702ed-bb6e-4ab2-b29a-f2f82ac37fba}, !- Layer 1
  {a5e44aa8-a846-4453-aa0e-f5c2abe310e9}, !- Layer 2
  {f7c62dd8-47ea-4086-8abf-acd457a65f01}, !- Layer 3
  {2ae9bd10-e5f0-4cf3-984e-951ff1cd7eda}; !- Layer 4

OS:StandardsInformation:Construction,
  {8269fff3-dab1-48e6-8603-0f323dc88462}, !- Handle
  {73fd68b3-9d43-41b5-9940-df2e6d657eff}, !- Construction Name
  ExteriorWall,                           !- Intended Surface Type
  Mass;                                   !- Standards Construction Type

OS:Construction,
  {fa36210d-70f0-42bd-ae3f-c4b563883b13}, !- Handle
  ASHRAE 189.1-2009 ExtWall Mass ClimateZone alt-res 7, !- Name
  ,                                       !- Surface Rendering Name
  {841702ed-bb6e-4ab2-b29a-f2f82ac37fba}, !- Layer 1
  {a5e44aa8-a846-4453-aa0e-f5c2abe310e9}, !- Layer 2
  {f7c62dd8-47ea-4086-8abf-acd457a65f01}, !- Layer 3
  {2ae9bd10-e5f0-4cf3-984e-951ff1cd7eda}; !- Layer 4

OS:StandardsInformation:Construction,
  {bd1912e9-7172-4f33-b1ae-a04f935a91d8}, !- Handle
  {fa36210d-70f0-42bd-ae3f-c4b563883b13}, !- Construction Name
  ExteriorWall,                           !- Intended Surface Type