
OS:Version,
  {e65c90f8-4e31-46ed-a30d-dba31c1b00c2}, !- Handle
  1.2.3;                                  !- Version Identifier

OS:Construction,
  {01542283-c8c3-4a60-a177-3504961f1f85}, !- Handle
  ASHRAE 189.1-2009 AtticFloor ClimateZone 1-8, !- Name
  ,                                       !- Surface Rendering Name
  {da149171-4664-4883-8e5b-7d6731909ebb}, !- Layer 1
  {38f54a88-c4f1-496b-8e4f-88c532068b83}, !- Layer 2
  {da149171-4664-4883-8e5b-7d6731909ebb}; !- Layer 3

OS:StandardsInformation:Construction,
  {e95b22db-bed0-4ad1-b92f-9a55563f999b}, !- Handle
  {01542283-c8c3-4a60-a177-3504961f1f85}, !- Construction Name
  AtticFloor,                             !- Intended Surface Type
  WoodFramed;                             !- Standards Construction Type

OS:Material,
  {da149171-4664-4883-8e5b-7d6731909ebb}, !- Handle
  1/2IN Gypsum,                           !- Name
  Smooth,                                 !- Roughness
  0.0127,                                 !- Thickness {m}
  0.16,                                   !- Conductivity {W/m-K}
  784.9,                                  !- Density {kg/m3}
  830.000000000001,                       !- Specific Heat {J/kg-K}
  0.9,                                    !- Thermal Absorptance
  0.92,                                   !- Solar Absorptance
  0.92;                                   !- Visible Absorptance

OS:Material,
  {38f54a88-c4f1-496b-8e4f-88c532068b83}, !- Handle
  AtticFloor Insulation,                  !- Name
  MediumRough,                            !- Roughness
  0.2379,                                 !- Thickness {m}
  0.049,                                  !- Conductivity {W/m-K}
  265,                                    !- Density {kg/m3}
  836.800000000001,                       !- Specific Heat {J/kg-K}
  0.9,                                    !- Thermal Absorptance
  0.7,                                    !- Solar Absorptance
  0.7;                                    !- Visible Absorptance

OS:Construction,
  {c6c86841-d557-428a-a90c-acd223ef9c51}, !- Handle
  ASHRAE 189.1-2009 ExtRoof IEAD ClimateZone 1, !- Name
  ,                                       !- Surface Rendering Name
  {da41dd24-8680-469e-bcc4-6d3fe27d1d0e}, !- Layer 1
  {37a3f601-c8de-4983-8482-b09fbb7be667}, !- Layer 2
  {488c3e30-5f41-4edc-afba-8b79d4ef8f77}; !- Layer 3

OS:StandardsInformation:Construction,
  {7996961f-8ef1-4ef2-8eaf-f33f772b9210}, !- Handle
  {c6c86841-d557-428a-a90c-acd223ef9c51}, !- Construction Name
  ExteriorRoof,                           !- Intended Surface Type
  IEAD;                                   !- Standards Construction Type

OS:Material,
  {da41dd24-8680-469e-bcc4-6d3fe27d1d0e}, !- Handle
  Roof Membrane,                          !- Name
  VeryRough,                              !- Roughness
  0.0095,                                 !- Thickness {m}
  0.16,                                   !- Conductivity {W/m-K}
  1121.29,                                !- Density {kg/m3}
  1460,                                   !- Specific Heat {J/kg-K}
  0.9,                                    !- Thermal Absorptance
  0.7,                                    !- Solar Absorptance
  0.7;                                    !- Visible Absorptance

OS:Material,
  {37a3f601-c8de-4983-8482-b09fbb7be667}, !- Handle
  Roof Insulation [18],                   !- Name
  MediumRough,                            !- Roughness
  0.1693,                                 !- Thickness {m}
  0.049,                                  !- Conductivity {W/m-K}
  265,                                    !- Density {kg/m3}
  836.800000000001,                       !- Specific Heat {J/kg-K}
  0.9,                                    !- Thermal Absorptance
  0.7,                                    !- Solar Absorptance
  0.7;                                    !- Visible Absorptance

OS:Material,
  {488c3e30-5f41-4edc-afba-8b79d4ef8f77}, !- Handle
  Metal Decking,                          !- Name
  MediumSmooth,                           !- Roughness
  0.0015,                                 !- Thickness {m}
  45.006,                                 !- Conductivity {W/m-K}
  7680,                                   !- Density {kg/m3}
  418.4,                                  !- Specific Heat {J/kg-K}
  0.9,                                    !- Thermal Absorptance
  0.7,                                    !- Solar Absorptance
  0.3;                                    !- Visible Absorptance

OS:Construction,
  {ef942646-d493-4501-8530-9f023c6e397c}, !- Handle
  ASHRAE 189.1-2009 ExtRoof IEAD ClimateZone 2-5, !- Name
  ,                                       !- Surface Rendering Name
  {da41dd24-8680-469e-bcc4-6d3fe27d1d0e}, !- Layer 1
  {2ad4585c-7bfb-4328-8757-fed3695557fe}, !- Layer 2
  {488c3e30-5f41-4edc-afba-8b79d4ef8f77}; !- Layer 3

OS:StandardsInformation:Construction,
  {300dfd34-1405-49aa-a473-abcbe671123e}, !- Handle
  {ef942646-d493-4501-8530-9f023c6e397c}, !- Construction Name
  ExteriorRoof,                           !- Intended Surface Type
  IEAD;                                   !- Standards Construction Type

OS:Material,
  {2ad4585c-7bfb-4328-8757-fed3695557fe}, !- Handle
  Roof Insulation [21],                   !- Name
  MediumRough,                            !- Roughness
  0.2105,                                 !- Thickness {m}
  0.049,                                  !- Conductivity {W/m-K}
  265,                                    !- Density {kg/m3}
  836.800000000001,                       !- Specific Heat {J/kg-K}
  0.9,                                    !- Thermal Absorptance
  0.7,                                    !- Solar Absorptance
  0.7;                                    !- Visible Absorptance

OS:Construction,
  {f6042e19-3ecd-49ed-be9d-80e7eb731ce5}, !- Handle
  ASHRAE 189.1-2009 ExtRoof IEAD ClimateZone 6, !- Name
  ,                                       !- Surface Rendering Name
  {da41dd24-8680-469e-bcc4-6d3fe27d1d0e}, !- Layer 1
  {d87e5b2e-9b00-4d87-bbb9-744e469d8135}, !- Layer 2
  {488c3e30-5f41-4edc-afba-8b79d4ef8f77}; !- Layer 3

OS:StandardsInformation:Construction,
  {eb0c569f-98b7-427c-8784-23e2c32d10a1}, !- Handle
  {f6042e19-3ecd-49ed-be9d-80e7eb731ce5}, !- Construction Name
  ExteriorRoof,                           !- Intended Surface Type
  IEAD;                                   !- Standards Construction Type

OS:Material,
  {d87e5b2e-9b00-4d87-bbb9-744e469d8135}, !- Handle
  Roof Insulation [24],                   !- Name
  MediumRough,                            !- Roughness
  0.260100000000001,                      !- Thickness {m}
  0.049,                                  !- Conductivity {W/m-K}
  265,                                    !- Density {kg/m3}
  836.800000000001,                       !- Specific Heat {J/kg-K}
  0.9,                                    !- Thermal Absorptance
  0.7,                                    !- Solar Absorptance
  0.7;                                    !- Visible Absorptance

OS:Construction,
  {19be7915-95e1-4732-b6de-0a0ccfa4d9e9}, !- Handle
  ASHRAE 189.1-2009 ExtRoof IEAD ClimateZone 7-8, !- Name
  ,                                       !- Surface Rendering Name
  {da41dd24-8680-469e-bcc4-6d3fe27d1d0e}, !- Layer 1
  {60e65068-fa2f-4bbb-80f6-d8e18fad163a}, !- Layer 2
  {488c3e30-5f41-4edc-afba-8b79d4ef8f77}; !- Layer 3

OS:StandardsInformation:Construction,
  {126b67c8-96f6-47cb-8465-57d31006522d}, !- Handle
  {19be7915-95e1-4732-b6de-0a0ccfa4d9e9}, !- Construction Name
  ExteriorRoof,                           !- Intended Surface Type
  IEAD;                                   !- Standards Construction Type

OS:Material,
  {60e65068-fa2f-4bbb-80f6-d8e18fad163a}, !- Handle
  Roof Insulation [26],                   !- Name
  MediumRough,                            !- Roughness
  0.2941,                                 !- Thickness {m}
  0.049,                                  !- Conductivity {W/m-K}
  265,                                    !- Density {kg/m3}
  836.800000000001,                       !- Specific Heat {J/kg-K}
  0.9,                                    !- Thermal Absorptance
  0.7,                                    !- Solar Absorptance
  0.7;                                    !- Visible Absorptance

OS:Construction,
  {6c8783ad-66f1-452a-986e-24d83f48f080}, !- Handle
  ASHRAE 189.1-2009 ExtRoof Metal ClimateZone 1, !- Name
  ,                                       !- Surface Rendering Name
  {22587fe3-30c2-439e-9e4a-408473b7a952}, !- Layer 1
  {cdb52f14-dcfb-4991-a7aa-a03a3c2c5c56}; !- Layer 2

OS:StandardsInformation:Construction,
  {8c285946-1c8d-4baf-a5b5-16a3b3358fbc}, !- Handle
  {6c8783ad-66f1-452a-986e-24d83f48f080}, !- Construction Name
  ExteriorRoof,                           !- Intended Surface Type
  Metal;                                  !- Standards Construction Type

OS:Material,
  {22587fe3-30c2-439e-9e4a-408473b7a952}, !- Handle
  Metal Roofing,                          !- Name
  MediumSmooth,                           !- Roughness
  0.0015,                                 !- Thickness {m}
  45.006,                                 !- Conductivity {W/m-K}
  7680,                                   !- Density {kg/m3}
  418.4,                                  !- Specific Heat {J/kg-K}
  0.9,                                    !- Thermal Absorptance
  0.3,                                    !- Solar Absorptance
  0.3;                                    !- Visible Absorptance

OS:Material,
  {cdb52f14-dcfb-4991-a7aa-a03a3c2c5c56}, !- Handle
  Roof Insulation [19],                   !- Name
  MediumRough,                            !- Roughness
  0.1868,                                 !- Thickness {m}
  0.049,                                  !- Conductivity {W/m-K}
  265,                                    !- Density {kg/m3}
  836.800000000001,                       !- Specific Heat {J/kg-K}
  0.9,                                    !- Thermal Absorptance
  0.7,                                    !- Solar Absorptance
  0.7;                                    !- Visible Absorptance

OS:Construction,
  {b287ebe6-9235-4b62-a323-6558eedd11e9}, !- Handle
  ASHRAE 189.1-2009 ExtRoof Metal ClimateZone 2-5, !- Name
  ,                                       !- Surface Rendering Name
  {22587fe3-30c2-439e-9e4a-408473b7a952}, !- Layer 1
  {5c78b63a-1cbd-43ab-8b03-f174f81e688c}; !- Layer 2

OS:StandardsInformation:Construction,
  {be6076e6-bb2a-4614-baf0-49769bac6ab4}, !- Handle
  {b287ebe6-9235-4b62-a323-6558eedd11e9}, !- Construction Name
  ExteriorRoof,                           !- Intended Surface Type
  Metal;                                  !- Standards Construction Type

OS:Material,
  {5c78b63a-1cbd-43ab-8b03-f174f81e688c}, !- Handle
  Roof Insulation [22],                   !- Name
  MediumRough,                            !- Roughness
  0.2358,                                 !- Thickness {m}
  0.049,                                  !- Conductivity {W/m-K}
  265,                                    !- Density {kg/m3}
  836.800000000001,                       !- Specific Heat {J/kg-K}
  0.9,                                    !- Thermal Absorptance
  0.7,                                    !- Solar Absorptance
  0.7;                                    !- Visible Absorptance

OS:Construction,
  {70e962b1-86e0-4666-b116-6a5999ff0a07}, !- Handle
  ASHRAE 189.1-2009 ExtRoof Metal ClimateZone 6, !- Name
  ,                                       !- Surface Rendering Name
  {22587fe3-30c2-439e-9e4a-408473b7a952}, !- Layer 1
  {4797cbe6-cf4a-4813-8857-1ff446d81c47}; !- Layer 2

OS:StandardsInformation:Construction,
  {e62e821a-5d24-4eb7-94b9-5bae76230fd5}, !- Handle
  {70e962b1-86e0-4666-b116-6a5999ff0a07}, !- Construction Name
  ExteriorRoof,                           !- Intended Surface Type
  Metal;                                  !- Standards Construction Type

OS:Material,
  {4797cbe6-cf4a-4813-8857-1ff446d81c47}, !- Handle
  Roof Insulation [25],                   !- Name
  MediumRough,                            !- Roughness
  0.263,                                  !- Thickness {m}
  0.049,                                  !- Conductivity {W/m-K}
  265,                                    !- Density {kg/m3}
  836.800000000001,                       !- Specific Heat {J/kg-K}
  0.9,                                    !- Thermal Absorptance
  0.7,                                    !- Solar Absorptance
  0.7;                                    !- Visible Absorptance

OS:Construction,
  {4b5973f5-e0f0-4637-96c4-d1cd1579443e}, !- Handle
  ASHRAE 189.1-2009 ExtRoof Metal ClimateZone 7-8, !- Name
  ,                                       !- Surface Rendering Name
  {22587fe3-30c2-439e-9e4a-408473b7a952}, !- Layer 1
  {ac8236e0-c68e-4e24-821a-e8fb22df2de5}; !- Layer 2

OS:StandardsInformation:Construction,
  {f27c079c-d16f-48cf-83b2-95ffff249260}, !- Handle
  {4b5973f5-e0f0-4637-96c4-d1cd1579443e}, !- Construction Name
  ExteriorRoof,                           !- Intended Surface Type
  Metal;                                  !- Standards Construction Type

OS:Material,
  {ac8236e0-c68e-4e24-821a-e8fb22df2de5}, !- Handle
  Roof Insulation [27],                   !- Name
  MediumRough,                            !- Roughness
  0.297000000000001,                      !- Thickness {m}
  0.049,                                  !- Conductivity {W/m-K}
  265,                                    !- Density {kg/m3}
  836.800000000001,                       !- Specific Heat {J/kg-K}
  0.9,                                    !- Thermal Absorptance
  0.7,                                    !- Solar Absorptance
  0.7;                                    !- Visible Absorptance

OS:Construction,
  {ddcc0202-d021-424d-ad53-b7096f985a7e}, !- Handle
  ASHRAE 189.1-2009 ExtWall Mass ClimateZone 1, !- Name
  ,                                       !- Surface Rendering Name
  {3dffbc0d-858b-4645-8d61-ed01714724aa}, !- Layer 1
  {e54149e3-7eb0-4b2d-9d8d-535333df3188}, !- Layer 2
  {19472a84-d384-40e5-a0a4-780f0208eb58}, !- Layer 3
  {da149171-4664-4883-8e5b-7d6731909ebb}; !- Layer 4

OS:StandardsInformation:Construction,
  {d2949a51-3f70-4902-b5e5-2e8a5577f8b5}, !- Handle
  {ddcc0202-d021-424d-ad53-b7096f985a7e}, !- Construction Name
  ExteriorWall,                           !- Intended Surface Type
  Mass;                                   !- Standards Construction Type

OS:Material,
  {3dffbc0d-858b-4645-8d61-ed01714724aa}, !- Handle
  1IN Stucco,                             !- Name
  Smooth,                                 !- Roughness
  0.0253,                                 !- Thickness {m}
  0.691799999999999,                      !- Conductivity {W/m-K}
  1858,                                   !- Density {kg/m3}
  836.999999999999,                       !- Specific Heat {J/kg-K}
  0.9,                                    !- Thermal Absorptance
  0.92,                                   !- Solar Absorptance
  0.92;                                   !- Visible Absorptance

OS:Material,
  {e54149e3-7eb0-4b2d-9d8d-535333df3188}, !- Handle
  8IN Concrete HW,                        !- Name
  MediumRough,                            !- Roughness
  0.2033,                                 !- Thickness {m}
  1.72959999999999,                       !- Conductivity {W/m-K}
  2242.99999999999,                       !- Density {kg/m3}
  836.999999999999,                       !- Specific Heat {J/kg-K}
  0.9,                                    !- Thermal Absorptance
  0.65,                                   !- Solar Absorptance
  0.65;                                   !- Visible Absorptance

OS:Material,
  {19472a84-d384-40e5-a0a4-780f0208eb58}, !- Handle
  Wall Insulation [31],                   !- Name
  MediumRough,                            !- Roughness
  0.0337000000000001,                     !- Thickness {m}
  0.0432,                                 !- Conductivity {W/m-K}
  91,                                     !- Density {kg/m3}
  836.999999999999,                       !- Specific Heat {J/kg-K}
  0.9,                                    !- Thermal Absorptance
  0.5,                                    !- Solar Absorptance
  0.5;                                    !- Visible Absorptance

OS:Construction,
  {0e3be036-9dbb-45bc-ad6d-a748dbf645bf}, !- Handle
  ASHRAE 189.1-2009 ExtWall Mass ClimateZone 2, !- Name
  ,                                       !- Surface Rendering Name
  {3dffbc0d-858b-4645-8d61-ed01714724aa}, !- Layer 1
  {e54149e3-7eb0-4b2d-9d8d-535333df3188}, !- Layer 2
  {351f7a92-a081-41b5-897d-259f6bac7f1d}, !- Layer 3
  {da149171-4664-4883-8e5b-7d6731909ebb}; !- Layer 4

OS:StandardsInformation:Construction,
  {5a730c99-a45a-4290-aa5d-f21a34a3315b}, !- Handle
  {0e3be036-9dbb-45bc-ad6d-a748dbf645bf}, !- Construction Name
  ExteriorWall,                           !- Intended Surface Type
  Mass;                                   !- Standards Construction Type

OS:Material,
  {351f7a92-a081-41b5-897d-259f6bac7f1d}, !- Handle
  Wall Insulation [35],                   !- Name
  MediumRough,                            !- Roughness
  0.0452,                                 !- Thickness {m}
  0.0432,                                 !- Conductivity {W/m-K}
  91,                                     !- Density {kg/m3}
  836.999999999999,                       !- Specific Heat {J/kg-K}
  0.9,                                    !- Thermal Absorptance
  0.5,                                    !- Solar Absorptance
  0.5;                                    !- Visible Absorptance

OS:Construction,
  {d34563e5-e7c0-4cf3-bf36-4d8b23ea3f54}, !- Handle
  ASHRAE 189.1-2009 ExtWall Mass ClimateZone 3, !- Name
  ,                                       !- Surface Rendering Name
  {3dffbc0d-858b-4645-8d61-ed01714724aa}, !- Layer 1
  {e54149e3-7eb0-4b2d-9d8d-535333df3188}, !- Layer 2
  {0f3c85fe-9961-462e-9b90-146af4f0cb6e}, !- Layer 3
  {da149171-4664-4883-8e5b-7d6731909ebb}; !- Layer 4

OS:StandardsInformation:Construction,
  {6d28abcb-a13b-457d-bb30-69f33cf20f44}, !- Handle
  {d34563e5-e7c0-4cf3-bf36-4d8b23ea3f54}, !- Construction Name
  ExteriorWall,                           !- Intended Surface Type
  Mass;                                   !- Standards Construction Type

OS:Material,
  {0f3c85fe-9961-462e-9b90-146af4f0cb6e}, !- Handle
  Wall Insulation [36],                   !- Name
  MediumRough,                            !- Roughness
  0.0565999999999999,                     !- Thickness {m}
  0.0432,                                 !- Conductivity {W/m-K}
  91,                                     !- Density {kg/m3}
  836.999999999999,                       !- Specific Heat {J/kg-K}
  0.9,                                    !- Thermal Absorptance
  0.5,                                    !- Solar Absorptance
  0.5;                                    !- Visible Absorptance

OS:Construction,
  {80989349-b74c-48cc-981f-66c018feec5e}, !- Handle
  ASHRAE 189.1-2009 ExtWall Mass ClimateZone 4, !- Name
  ,                                       !- Surface Rendering Name
  {3dffbc0d-858b-4645-8d61-ed01714724aa}, !- Layer 1
  {e54149e3-7eb0-4b2d-9d8d-535333df3188}, !- Layer 2
  {6d325058-b188-4690-94fd-ee7d97907641}, !- Layer 3
  {da149171-4664-4883-8e5b-7d6731909ebb}; !- Layer 4

OS:StandardsInformation:Construction,
  {5dc82902-8549-4f79-af50-595806d4b666}, !- Handle
  {80989349-b74c-48cc-981f-66c018feec5e}, !- Construction Name
  ExteriorWall,                           !- Intended Surface Type
  Mass;                                   !- Standards Construction Type

OS:Material,
  {6d325058-b188-4690-94fd-ee7d97907641}, !- Handle
  Wall Insulation [37],                   !- Name
  MediumRough,                            !- Roughness
  0.0680999999999999,                     !- Thickness {m}
  0.0432,                                 !- Conductivity {W/m-K}
  91,                                     !- Density {kg/m3}
  836.999999999999,                       !- Specific Heat {J/kg-K}
  0.9,                                    !- Thermal Absorptance
  0.5,                                    !- Solar Absorptance
  0.5;                                    !- Visible Absorptance

OS:Construction,
  {d2e96818-17ed-4da1-9023-4afda000ef97}, !- Handle
  ASHRAE 189.1-2009 ExtWall Mass ClimateZone 5, !- Name
  ,                                       !- Surface Rendering Name
  {3dffbc0d-858b-4645-8d61-ed01714724aa}, !- Layer 1
  {e54149e3-7eb0-4b2d-9d8d-535333df3188}, !- Layer 2
  {3499a37d-37df-4387-8cea-6578dadc633f}, !- Layer 3
  {da149171-4664-4883-8e5b-7d6731909ebb}; !- Layer 4

OS:StandardsInformation:Construction,
  {c477b214-e525-464b-a5be-80cc214fb430}, !- Handle
  {d2e96818-17ed-4da1-9023-4afda000ef97}, !- Construction Name
  ExteriorWall,                           !- Intended Surface Type
  Mass;                                   !- Standards Construction Type

OS:Material,
  {3499a37d-37df-4387-8cea-6578dadc633f}, !- Handle
  Wall Insulation [40],                   !- Name
  MediumRough,                            !- Roughness
  0.0793999999999999,                     !- Thickness {m}
  0.0432,                                 !- Conductivity {W/m-K}
  91,                                     !- Density {kg/m3}
  836.999999999999,                       !- Specific Heat {J/kg-K}
  0.9,                                    !- Thermal Absorptance
  0.5,                                    !- Solar Absorptance
  0.5;                                    !- Visible Absorptance

OS:Construction,
  {45e33273-08f9-434b-8826-b5244930d32e}, !- Handle
  ASHRAE 189.1-2009 ExtWall Mass ClimateZone 6, !- Name
  ,                                       !- Surface Rendering Name
  {3dffbc0d-858b-4645-8d61-ed01714724aa}, !- Layer 1
  {e54149e3-7eb0-4b2d-9d8d-535333df3188}, !- Layer 2
  {8e5952d2-2568-4676-b574-6edbc985a2fa}, !- Layer 3
  {da149171-4664-4883-8e5b-7d6731909ebb}; !- Layer 4

OS:StandardsInformation:Construction,
  {f431a00a-5277-4fda-af15-839fae75c4b7}, !- Handle
  {45e33273-08f9-434b-8826-b5244930d32e}, !- Construction Name
  ExteriorWall,                           !- Intended Surface Type
  Mass;                                   !- Standards Construction Type

OS:Material,
  {8e5952d2-2568-4676-b574-6edbc985a2fa}, !- Handle
  Wall Insulation [42],                   !- Name
  MediumRough,                            !- Roughness
  0.0913999999999999,                     !- Thickness {m}
  0.0432,                                 !- Conductivity {W/m-K}
  91,                                     !- Density {kg/m3}
  836.999999999999,                       !- Specific Heat {J/kg-K}
  0.9,                                    !- Thermal Absorptance
  0.5,                                    !- Solar Absorptance
  0.5;                                    !- Visible Absorptance

OS:Construction,
  {8748b087-4f02-41b4-a211-36ad66b6744a}, !- Handle
  ASHRAE 189.1-2009 ExtWall Mass ClimateZone 7-8, !- Name
  ,                                       !- Surface Rendering Name
  {3dffbc0d-858b-4645-8d61-ed01714724aa}, !- Layer 1
  {e54149e3-7eb0-4b2d-9d8d-535333df3188}, !- Layer 2
  {e8a89c5d-07c8-41d8-a590-87ed9a9e4c55}, !- Layer 3
  {da149171-4664-4883-8e5b-7d6731909ebb}; !- Layer 4

OS:StandardsInformation:Construction,
  {446a3f8d-319d-4404-933a-00a3db3cacb1}, !- Handle
  {8748b087-4f02-41b4-a211-36ad66b6744a}, !- Construction Name
  ExteriorWall,                           !- Intended Surface Type
  Mass;                                   !- Standards Construction Type

OS:Material,
  {e8a89c5d-07c8-41d8-a590-87ed9a9e4c55}, !- Handle
  Wall Insulation [44],                   !- Name
  MediumRough,                            !- Roughness
  0.1104,                                 !- Thickness {m}
  0.0432,                                 !- Conductivity {W/m-K}
  91,                                     !- Density {kg/m3}
  836.999999999999,                       !- Specific Heat {J/kg-K}
  0.9,                                    !- Thermal Absorptance
  0.5,                                    !- Solar Absorptance
  0.5;                                    !- Visible Absorptance

OS:Construction,
  {ee1ff39a-3ab5-453f-b0c5-c750496c958d}, !- Handle
  ASHRAE 189.1-2009 ExtWall Mass ClimateZone alt-res 1, !- Name
  ,                                       !- Surface Rendering Name
  {3dffbc0d-858b-4645-8d61-ed01714724aa}, !- Layer 1
  {e54149e3-7eb0-4b2d-9d8d-535333df3188}, !- Layer 2
  {351f7a92-a081-41b5-897d-259f6bac7f1d}, !- Layer 3
  {da149171-4664-4883-8e5b-7d6731909ebb}; !- Layer 4

OS:StandardsInformation:Construction,
  {d10cada8-68a7-44d8-838e-4a567b17bbb1}, !- Handle
  {ee1ff39a-3ab5-453f-b0c5-c750496c958d}, !- Construction Name
  ExteriorWall,                           !- Intended Surface Type
  Mass;                                   !- Standards Construction Type

OS:Construction,
  {82088cc8-42d7-47a0-a1a1-45efb74dd4ef}, !- Handle
  ASHRAE 189.1-2009 ExtWall Mass ClimateZone alt-res 2, !- Name
  ,                                       !- Surface Rendering Name
  {3dffbc0d-858b-4645-8d61-ed01714724aa}, !- Layer 1
  {e54149e3-7eb0-4b2d-9d8d-535333df3188}, !- Layer 2
  {0f3c85fe-9961-462e-9b90-146af4f0cb6e}, !- Layer 3
  {da149171-4664-4883-8e5b-7d6731909ebb}; !- Layer 4

OS:StandardsInformation:Construction,
  {455999f0-be4a-41af-900d-fecb5c7fcf02}, !- Handle
  {82088cc8-42d7-47a0-a1a1-45efb74dd4ef}, !- Construction Name
  ExteriorWall,                           !- Intended Surface Type
  Mass;                                   !- Standards Construction Type

OS:Construction,
  {153e12a2-b072-4417-a810-d1d00c722976}, !- Handle
  ASHRAE 189.1-2009 ExtWall Mass ClimateZone alt-res 3, !- Name
  ,                                       !- Surface Rendering Name
  {3dffbc0d-858b-4645-8d61-ed01714724aa}, !- Layer 1
  {e54149e3-7eb0-4b2d-9d8d-535333df3188}, !- Layer 2
  {6d325058-b188-4690-94fd-ee7d97907641}, !- Layer 3
  {da149171-4664-4883-8e5b-7d6731909ebb}; !- Layer 4

OS:StandardsInformation:Construction,
  {6270bb89-ab32-42aa-bd48-73276d596f7f}, !- Handle
  {153e12a2-b072-4417-a810-d1d00c722976}, !- Construction Name
  ExteriorWall,                           !- Intended Surface Type
  Mass;                                   !- Standards Construction Type

OS:Construction,
  {40a4db83-5b48-43fa-b07a-320be48f098a}, !- Handle
  ASHRAE 189.1-2009 ExtWall Mass ClimateZone alt-res 4, !- Name
  ,                                       !- Surface Rendering Name
  {3dffbc0d-858b-4645-8d61-ed01714724aa}, !- Layer 1
  {e54149e3-7eb0-4b2d-9d8d-535333df3188}, !- Layer 2
  {3499a37d-37df-4387-8cea-6578dadc633f}, !- Layer 3
  {da149171-4664-4883-8e5b-7d6731909ebb}; !- Layer 4

OS:StandardsInformation:Construction,
  {6f951163-84f1-4f2b-a3a5-3f53e01e86a1}, !- Handle
  {40a4db83-5b48-43fa-b07a-320be48f098a}, !- Construction Name
  ExteriorWall,                           !- Intended Surface Type
  Mass;                                   !- Standards Construction Type

OS:Construction,
  {be617e12-3087-4f82-820c-45aed1e50008}, !- Handle
  ASHRAE 189.1-2009 ExtWall Mass ClimateZone alt-res 5, !- Name
  ,                                       !- Surface Rendering Name
  {3dffbc0d-858b-4645-8d61-ed01714724aa}, !- Layer 1
  {e54149e3-7eb0-4b2d-9d8d-535333df3188}, !- Layer 2
  {8e5952d2-2568-4676-b574-6edbc985a2fa}, !- Layer 3
  {da149171-4664-4883-8e5b-7d6731909ebb}; !- Layer 4

OS:StandardsInformation:Construction,
  {ff7b09bf-88c1-467a-a1a6-ce29ef01bbc0}, !- Handle
  {be617e12-3087-4f82-820c-45aed1e50008}, !- Construction Name
  ExteriorWall,                           !- Intended Surface Type
  Mass;                                   !- Standards Construction Type

OS:Construction,
  {b4bfab53-c975-43fe-a6b1-c6d19beb8562}, !- Handle
  ASHRAE 189.1-2009 ExtWall Mass ClimateZone alt-res 6, !- Name
  ,                                       !- Surface Rendering Name
  {3dffbc0d-858b-4645-8d61-ed01714724aa}, !- Layer 1
  {e54149e3-7eb0-4b2d-9d8d-535333df3188}, !- Layer 2
  {e8a89c5d-07c8-41d8-a590-87ed9a9e4c55}, !- Layer 3
  {da149171-4664-4883-8e5b-7d6731909ebb}; !- Layer 4

OS:StandardsInformation:Construction,
  {1be913bf-26da-4d57-a740-4cb258c71f34}, !- Handle
  {b4bfab53-c975-43fe-a6b1-c6d19beb8562}, !- Construction Name
  ExteriorWall,                           !- Intended Surface Type
  Mass;                                   !- Standards Construction Type

OS:Construction,
  {474fc8ab-f89d-4d8b-9b25-fd774cf12e63}, !- Handle
  ASHRAE 189.1-2009 ExtWall Mass ClimateZone alt-res 7, !- Name
  ,                                       !- Surface Rendering Name
  {3dffbc0d-858b-4645-8d61-ed01714724aa}, !- Layer 1
  {e54149e3-7eb0-4b2d-9d8d-535333df3188}, !- Layer 2
  {e8a89c5d-07c8-41d8-a590-87ed9a9e4c55}, !- Layer 3
  {da149171-4664-4883-8e5b-7d6731909ebb}; !- Layer 4

OS:StandardsInformation:Construction,
  {e4589c58-580d-4539-99aa-59da26932dc2}, !- Handle
  {474fc8ab-f89d-4d8b-9b25-fd774cf12e63}, !- Construction Name
  ExteriorWall,                           !- Intended Surface Type
  Mass;                                   !- Standards Construction Type

OS:Construction,
  {aae8b7e0-e46e-4ea1-972d-4975e8ad5910}, !- Handle
  ASHRAE 189.1-2009 ExtWall Mass ClimateZone alt-res 8, !- Name