
OS:Version,
  {35826f8b-31de-48c4-b8d5-88835955bf5b}, !- Handle
  1.3.0;                                  !- Version Identifier

OS:Construction,
  {651b9ecd-06c4-4fb3-8e6c-14b9a1df398f}, !- Handle
  ASHRAE 189.1-2009 AtticFloor ClimateZone 1-8, !- Name
  ,                                       !- Surface Rendering Name
  {4a97dde0-3f4e-472b-b46b-dc818e71c450}, !- Layer 1
  {4ee5e7ed-bd21-4abd-aa83-cd893b700357}, !- Layer 2
  {4a97dde0-3f4e-472b-b46b-dc818e71c450}; !- Layer 3

OS:StandardsInformation:Construction,
  {0cb452c6-3854-43b7-9b4f-f64e58468d52}, !- Handle
  {651b9ecd-06c4-4fb3-8e6c-14b9a1df398f}, !- Construction Name
  AtticFloor,                             !- Intended Surface Type
  WoodFramed;                             !- Standards Construction Type

OS:Material,
  {4a97dde0-3f4e-472b-b46b-dc818e71c450}, !- Handle
  1/2IN Gypsum,                           !- Name
  Smooth,                                 !- Roughness
  0.0127,                                 !- Thickness {m}
  0.16,                                   !- Conductivity {W/m-K}
  784.9,                                  !- Density {kg/m3}
  830.000000000001,                       !- Specific Heat {J/kg-K}
  0.9,                                    !- Thermal Absorptance
  0.92,                                   !- Solar Absorptance
  0.92;                                   !- Visible Absorptance

OS:Material,
  {4ee5e7ed-bd21-4abd-aa83-cd893b700357}, !- Handle
  AtticFloor Insulation,                  !- Name
  MediumRough,                            !- Roughness
  0.2379,                                 !- Thickness {m}
  0.049,                                  !- Conductivity {W/m-K}
  265,                                    !- Density {kg/m3}
  836.800000000001,                       !- Specific Heat {J/kg-K}
  0.9,                                    !- Thermal Absorptance
  0.7,                                    !- Solar Absorptance
  0.7;                                    !- Visible Absorptance

OS:Construction,
  {ab7984e4-4a28-41cf-90cd-aa63f4ef7044}, !- Handle
  ASHRAE 189.1-2009 ExtRoof IEAD ClimateZone 1, !- Name
  ,                                       !- Surface Rendering Name
  {a15666dd-cf32-4638-9369-6603e21efb59}, !- Layer 1
  {130a4c49-b05f-4440-a3bd-3c948e8c3237}, !- Layer 2
  {286243c7-4e51-43d7-9616-27369cbdabaf}; !- Layer 3

OS:StandardsInformation:Construction,
  {50b99e5e-05c6-49b9-a208-8c04c13775eb}, !- Handle
  {ab7984e4-4a28-41cf-90cd-aa63f4ef7044}, !- Construction Name
  ExteriorRoof,                           !- Intended Surface Type
  IEAD;                                   !- Standards Construction Type

OS:Material,
  {a15666dd-cf32-4638-9369-6603e21efb59}, !- Handle
  Roof Membrane,                          !- Name
  VeryRough,                              !- Roughness
  0.0095,                                 !- Thickness {m}
  0.16,                                   !- Conductivity {W/m-K}
  1121.29,                                !- Density {kg/m3}
  1460,                                   !- Specific Heat {J/kg-K}
  0.9,                                    !- Thermal Absorptance
  0.7,                                    !- Solar Absorptance
  0.7;                                    !- Visible Absorptance

OS:Material,
  {130a4c49-b05f-4440-a3bd-3c948e8c3237}, !- Handle
  Roof Insulation [18],                   !- Name
  MediumRough,                            !- Roughness
  0.1693,                                 !- Thickness {m}
  0.049,                                  !- Conductivity {W/m-K}
  265,                                    !- Density {kg/m3}
  836.800000000001,                       !- Specific Heat {J/kg-K}
  0.9,                                    !- Thermal Absorptance
  0.7,                                    !- Solar Absorptance
  0.7;                                    !- Visible Absorptance

OS:Material,
  {286243c7-4e51-43d7-9616-27369cbdabaf}, !- Handle
  Metal Decking,                          !- Name
  MediumSmooth,                           !- Roughness
  0.0015,                                 !- Thickness {m}
  45.006,                                 !- Conductivity {W/m-K}
  7680,                                   !- Density {kg/m3}
  418.4,                                  !- Specific Heat {J/kg-K}
  0.9,                                    !- Thermal Absorptance
  0.7,                                    !- Solar Absorptance
  0.3;                                    !- Visible Absorptance

OS:Construction,
  {2e3d9174-f62f-460a-96b3-3ddeed4c5a88}, !- Handle
  ASHRAE 189.1-2009 ExtRoof IEAD ClimateZone 2-5, !- Name
  ,                                       !- Surface Rendering Name
  {a15666dd-cf32-4638-9369-6603e21efb59}, !- Layer 1
  {edf51e88-e932-45ed-ac2b-b8fcf48d71f2}, !- Layer 2
  {286243c7-4e51-43d7-9616-27369cbdabaf}; !- Layer 3

OS:StandardsInformation:Construction,
  {b06fdbea-7476-4812-b411-b616a1b1faec}, !- Handle
  {2e3d9174-f62f-460a-96b3-3ddeed4c5a88}, !- Construction Name
  ExteriorRoof,                           !- Intended Surface Type
  IEAD;                                   !- Standards Construction Type

OS:Material,
  {edf51e88-e932-45ed-ac2b-b8fcf48d71f2}, !- Handle
  Roof Insulation [21],                   !- Name
  MediumRough,                            !- Roughness
  0.2105,                                 !- Thickness {m}
  0.049,                                  !- Conductivity {W/m-K}
  265,                                    !- Density {kg/m3}
  836.800000000001,                       !- Specific Heat {J/kg-K}
  0.9,                                    !- Thermal Absorptance
  0.7,                                    !- Solar Absorptance
  0.7;                                    !- Visible Absorptance

OS:Construction,
  {d0bb4bd9-8bf1-4564-b8d6-5764799e2519}, !- Handle
  ASHRAE 189.1-2009 ExtRoof IEAD ClimateZone 6, !- Name
  ,                                       !- Surface Rendering Name
  {a15666dd-cf32-4638-9369-6603e21efb59}, !- Layer 1
  {4760d413-df34-48d6-85c4-5072782b5328}, !- Layer 2
  {286243c7-4e51-43d7-9616-27369cbdabaf}; !- Layer 3

OS:StandardsInformation:Construction,
  {24cdd3b4-a571-40b2-8f22-da12d115e1f4}, !- Handle
  {d0bb4bd9-8bf1-4564-b8d6-5764799e2519}, !- Construction Name
  ExteriorRoof,                           !- Intended Surface Type
  IEAD;                                   !- Standards Construction Type

OS:Material,
  {4760d413-df34-48d6-85c4-5072782b5328}, !- Handle
  Roof Insulation [24],                   !- Name
  MediumRough,                            !- Roughness
  0.260100000000001,                      !- Thickness {m}
  0.049,                                  !- Conductivity {W/m-K}
  265,                                    !- Density {kg/m3}
  836.800000000001,                       !- Specific Heat {J/kg-K}
  0.9,                                    !- Thermal Absorptance
  0.7,                                    !- Solar Absorptance
  0.7;                                    !- Visible Absorptance

OS:Construction,
  {9ea85359-2165-484c-aeeb-6eb99817fc0b}, !- Handle
  ASHRAE 189.1-2009 ExtRoof IEAD ClimateZone 7-8, !- Name
  ,                                       !- Surface Rendering Name
  {a15666dd-cf32-4638-9369-6603e21efb59}, !- Layer 1
  {e508db74-13ea-4ef9-a310-2e52ebc3fd41}, !- Layer 2
  {286243c7-4e51-43d7-9616-27369cbdabaf}; !- Layer 3

OS:StandardsInformation:Construction,
  {80cce632-627e-4f6e-9477-997f84302ca7}, !- Handle
  {9ea85359-2165-484c-aeeb-6eb99817fc0b}, !- Construction Name
  ExteriorRoof,                           !- Intended Surface Type
  IEAD;                                   !- Standards Construction Type

OS:Material,
  {e508db74-13ea-4ef9-a310-2e52ebc3fd41}, !- Handle
  Roof Insulation [26],                   !- Name
  MediumRough,                            !- Roughness
  0.2941,                                 !- Thickness {m}
  0.049,                                  !- Conductivity {W/m-K}
  265,                                    !- Density {kg/m3}
  836.800000000001,                       !- Specific Heat {J/kg-K}
  0.9,                                    !- Thermal Absorptance
  0.7,                                    !- Solar Absorptance
  0.7;                                    !- Visible Absorptance

OS:Construction,
  {b574dc4a-27d7-4e3d-9ec8-5b8d18a8292d}, !- Handle
  ASHRAE 189.1-2009 ExtRoof Metal ClimateZone 1, !- Name
  ,                                       !- Surface Rendering Name
  {763f171a-ce9a-4b72-a4e5-accd4c55d976}, !- Layer 1
  {bb749722-9d80-458e-9e4c-14a63c9e6a74}; !- Layer 2

OS:StandardsInformation:Construction,
  {ff59d30a-7b39-45f8-823b-2aec13058a47}, !- Handle
  {b574dc4a-27d7-4e3d-9ec8-5b8d18a8292d}, !- Construction Name
  ExteriorRoof,                           !- Intended Surface Type
  Metal;                                  !- Standards Construction Type

OS:Material,
  {763f171a-ce9a-4b72-a4e5-accd4c55d976}, !- Handle
  Metal Roofing,                          !- Name
  MediumSmooth,                           !- Roughness
  0.0015,                                 !- Thickness {m}
  45.006,                                 !- Conductivity {W/m-K}
  7680,                                   !- Density {kg/m3}
  418.4,                                  !- Specific Heat {J/kg-K}
  0.9,                                    !- Thermal Absorptance
  0.3,                                    !- Solar Absorptance
  0.3;                                    !- Visible Absorptance

OS:Material,
  {bb749722-9d80-458e-9e4c-14a63c9e6a74}, !- Handle
  Roof Insulation [19],                   !- Name
  MediumRough,                            !- Roughness
  0.1868,                                 !- Thickness {m}
  0.049,                                  !- Conductivity {W/m-K}
  265,                                    !- Density {kg/m3}
  836.800000000001,                       !- Specific Heat {J/kg-K}
  0.9,                                    !- Thermal Absorptance
  0.7,                                    !- Solar Absorptance
  0.7;                                    !- Visible Absorptance

OS:Construction,
  {93c9efc2-afdd-47b2-8e4a-4730504d2c76}, !- Handle
  ASHRAE 189.1-2009 ExtRoof Metal ClimateZone 2-5, !- Name
  ,                                       !- Surface Rendering Name
  {763f171a-ce9a-4b72-a4e5-accd4c55d976}, !- Layer 1
  {eaf84056-5282-4f2b-b02a-b68df1c43bbc}; !- Layer 2

OS:StandardsInformation:Construction,
  {a907edff-8e70-4a82-9ffb-8f392e9ef927}, !- Handle
  {93c9efc2-afdd-47b2-8e4a-4730504d2c76}, !- Construction Name
  ExteriorRoof,                           !- Intended Surface Type
  Metal;                                  !- Standards Construction Type

OS:Material,
  {eaf84056-5282-4f2b-b02a-b68df1c43bbc}, !- Handle
  Roof Insulation [22],                   !- Name
  MediumRough,                            !- Roughness
  0.2358,                                 !- Thickness {m}
  0.049,                                  !- Conductivity {W/m-K}
  265,                                    !- Density {kg/m3}
  836.800000000001,                       !- Specific Heat {J/kg-K}
  0.9,                                    !- Thermal Absorptance
  0.7,                                    !- Solar Absorptance
  0.7;                                    !- Visible Absorptance

OS:Construction,
  {d0b997aa-f9ac-4987-bc0f-87c6c9c2de7f}, !- Handle
  ASHRAE 189.1-2009 ExtRoof Metal ClimateZone 6, !- Name
  ,                                       !- Surface Rendering Name
  {763f171a-ce9a-4b72-a4e5-accd4c55d976}, !- Layer 1
  {eeadf1f2-84fa-46d1-8288-6c4748e50919}; !- Layer 2

OS:StandardsInformation:Construction,
  {9d6f479e-eb75-4ca8-b4e5-6d5b53c6a191}, !- Handle
  {d0b997aa-f9ac-4987-bc0f-87c6c9c2de7f}, !- Construction Name
  ExteriorRoof,                           !- Intended Surface Type
  Metal;                                  !- Standards Construction Type

OS:Material,
  {eeadf1f2-84fa-46d1-8288-6c4748e50919}, !- Handle
  Roof Insulation [25],                   !- Name
  MediumRough,                            !- Roughness
  0.263,                                  !- Thickness {m}
  0.049,                                  !- Conductivity {W/m-K}
  265,                                    !- Density {kg/m3}
  836.800000000001,                       !- Specific Heat {J/kg-K}
  0.9,                                    !- Thermal Absorptance
  0.7,                                    !- Solar Absorptance
  0.7;                                    !- Visible Absorptance

OS:Construction,
  {28176c59-be61-4972-9e4e-e964aff42069}, !- Handle
  ASHRAE 189.1-2009 ExtRoof Metal ClimateZone 7-8, !- Name
  ,                                       !- Surface Rendering Name
  {763f171a-ce9a-4b72-a4e5-accd4c55d976}, !- Layer 1
  {455ada37-cf94-4f0f-9fa1-8e43c877cfd8}; !- Layer 2

OS:StandardsInformation:Construction,
  {719c61cd-0f74-490f-b90b-3bcae1196ad7}, !- Handle
  {28176c59-be61-4972-9e4e-e964aff42069}, !- Construction Name
  ExteriorRoof,                           !- Intended Surface Type
  Metal;                                  !- Standards Construction Type

OS:Material,
  {455ada37-cf94-4f0f-9fa1-8e43c877cfd8}, !- Handle
  Roof Insulation [27],                   !- Name
  MediumRough,                            !- Roughness
  0.297000000000001,                      !- Thickness {m}
  0.049,                                  !- Conductivity {W/m-K}
  265,                                    !- Density {kg/m3}
  836.800000000001,                       !- Specific Heat {J/kg-K}
  0.9,                                    !- Thermal Absorptance
  0.7,                                    !- Solar Absorptance
  0.7;                                    !- Visible Absorptance

OS:Construction,
  {1efddf21-5211-4e49-b4cd-af09326c7a25}, !- Handle
  ASHRAE 189.1-2009 ExtWall Mass ClimateZone 1, !- Name
  ,                                       !- Surface Rendering Name
  {c7129e99-ba63-4b7a-88d5-8ab242dc0554}, !- Layer 1
  {f5054f8e-cb12-4806-b769-a6cbf2049ce7}, !- Layer 2
  {123e5021-5409-47b3-92eb-1e63f199be00}, !- Layer 3
  {4a97dde0-3f4e-472b-b46b-dc818e71c450}; !- Layer 4

OS:StandardsInformation:Construction,
  {8d69d570-6882-404b-ae3f-1198a2d48e78}, !- Handle
  {1efddf21-5211-4e49-b4cd-af09326c7a25}, !- Construction Name
  ExteriorWall,                           !- Intended Surface Type
  Mass;                                   !- Standards Construction Type

OS:Material,
  {c7129e99-ba63-4b7a-88d5-8ab242dc0554}, !- Handle
  1IN Stucco,                             !- Name
  Smooth,                                 !- Roughness
  0.0253,                                 !- Thickness {m}
  0.691799999999999,                      !- Conductivity {W/m-K}
  1858,                                   !- Density {kg/m3}
  836.999999999999,                       !- Specific Heat {J/kg-K}
  0.9,                                    !- Thermal Absorptance
  0.92,                                   !- Solar Absorptance
  0.92;                                   !- Visible Absorptance

OS:Material,
  {f5054f8e-cb12-4806-b769-a6cbf2049ce7}, !- Handle
  8IN Concrete HW,                        !- Name
  MediumRough,                            !- Roughness
  0.2033,                                 !- Thickness {m}
  1.72959999999999,                       !- Conductivity {W/m-K}
  2242.99999999999,                       !- Density {kg/m3}
  836.999999999999,                       !- Specific Heat {J/kg-K}
  0.9,                                    !- Thermal Absorptance
  0.65,                                   !- Solar Absorptance
  0.65;                                   !- Visible Absorptance

OS:Material,
  {123e5021-5409-47b3-92eb-1e63f199be00}, !- Handle
  Wall Insulation [31],                   !- Name
  MediumRough,                            !- Roughness
  0.0337000000000001,                     !- Thickness {m}
  0.0432,                                 !- Conductivity {W/m-K}
  91,                                     !- Density {kg/m3}
  836.999999999999,                       !- Specific Heat {J/kg-K}
  0.9,                                    !- Thermal Absorptance
  0.5,                                    !- Solar Absorptance
  0.5;                                    !- Visible Absorptance

OS:Construction,
  {fb80d420-12de-40ba-bd6d-2afd424ab080}, !- Handle
  ASHRAE 189.1-2009 ExtWall Mass ClimateZone 2, !- Name
  ,                                       !- Surface Rendering Name
  {c7129e99-ba63-4b7a-88d5-8ab242dc0554}, !- Layer 1
  {f5054f8e-cb12-4806-b769-a6cbf2049ce7}, !- Layer 2
  {11e152dc-93cd-4344-a562-52efc5691cda}, !- Layer 3
  {4a97dde0-3f4e-472b-b46b-dc818e71c450}; !- Layer 4

OS:StandardsInformation:Construction,
  {e69f78d7-05d3-4bda-be9c-8eb69e3e1031}, !- Handle
  {fb80d420-12de-40ba-bd6d-2afd424ab080}, !- Construction Name
  ExteriorWall,                           !- Intended Surface Type
  Mass;                                   !- Standards Construction Type

OS:Material,
  {11e152dc-93cd-4344-a562-52efc5691cda}, !- Handle
  Wall Insulation [35],                   !- Name
  MediumRough,                            !- Roughness
  0.0452,                                 !- Thickness {m}
  0.0432,                                 !- Conductivity {W/m-K}
  91,                                     !- Density {kg/m3}
  836.999999999999,                       !- Specific Heat {J/kg-K}
  0.9,                                    !- Thermal Absorptance
  0.5,                                    !- Solar Absorptance
  0.5;                                    !- Visible Absorptance

OS:Construction,
  {f6a33b26-db76-4629-ae83-e42b7bf27046}, !- Handle
  ASHRAE 189.1-2009 ExtWall Mass ClimateZone 3, !- Name
  ,                                       !- Surface Rendering Name
  {c7129e99-ba63-4b7a-88d5-8ab242dc0554}, !- Layer 1
  {f5054f8e-cb12-4806-b769-a6cbf2049ce7}, !- Layer 2
  {45cf0ef2-8b45-4279-9785-9da2ec938218}, !- Layer 3
  {4a97dde0-3f4e-472b-b46b-dc818e71c450}; !- Layer 4

OS:StandardsInformation:Construction,
  {054244ce-ac80-4dea-b213-9705f52731a5}, !- Handle
  {f6a33b26-db76-4629-ae83-e42b7bf27046}, !- Construction Name
  ExteriorWall,                           !- Intended Surface Type
  Mass;                                   !- Standards Construction Type

OS:Material,
  {45cf0ef2-8b45-4279-9785-9da2ec938218}, !- Handle
  Wall Insulation [36],                   !- Name
  MediumRough,                            !- Roughness
  0.0565999999999999,                     !- Thickness {m}
  0.0432,                                 !- Conductivity {W/m-K}
  91,                                     !- Density {kg/m3}
  836.999999999999,                       !- Specific Heat {J/kg-K}
  0.9,                                    !- Thermal Absorptance
  0.5,                                    !- Solar Absorptance
  0.5;                                    !- Visible Absorptance

OS:Construction,
  {55e8141b-92b5-4f66-b554-9947a6e10a2f}, !- Handle
  ASHRAE 189.1-2009 ExtWall Mass ClimateZone 4, !- Name
  ,                                       !- Surface Rendering Name
  {c7129e99-ba63-4b7a-88d5-8ab242dc0554}, !- Layer 1
  {f5054f8e-cb12-4806-b769-a6cbf2049ce7}, !- Layer 2
  {6f67fba4-936a-4561-a9a8-e2f7144aaea4}, !- Layer 3
  {4a97dde0-3f4e-472b-b46b-dc818e71c450}; !- Layer 4

OS:StandardsInformation:Construction,
  {26066866-4a52-4320-b16c-da4eed94ecb8}, !- Handle
  {55e8141b-92b5-4f66-b554-9947a6e10a2f}, !- Construction Name
  ExteriorWall,                           !- Intended Surface Type
  Mass;                                   !- Standards Construction Type

OS:Material,
  {6f67fba4-936a-4561-a9a8-e2f7144aaea4}, !- Handle
  Wall Insulation [37],                   !- Name
  MediumRough,                            !- Roughness
  0.0680999999999999,                     !- Thickness {m}
  0.0432,                                 !- Conductivity {W/m-K}
  91,                                     !- Density {kg/m3}
  836.999999999999,                       !- Specific Heat {J/kg-K}
  0.9,                                    !- Thermal Absorptance
  0.5,                                    !- Solar Absorptance
  0.5;                                    !- Visible Absorptance

OS:Construction,
  {cfb66473-8580-4b84-b260-90b73cfc9e09}, !- Handle
  ASHRAE 189.1-2009 ExtWall Mass ClimateZone 5, !- Name
  ,                                       !- Surface Rendering Name
  {c7129e99-ba63-4b7a-88d5-8ab242dc0554}, !- Layer 1
  {f5054f8e-cb12-4806-b769-a6cbf2049ce7}, !- Layer 2
  {ed6aad4a-d29f-4f4d-b08c-6125175f44a4}, !- Layer 3
  {4a97dde0-3f4e-472b-b46b-dc818e71c450}; !- Layer 4

OS:StandardsInformation:Construction,
  {ecacab7b-092b-46f8-816f-db183710053a}, !- Handle
  {cfb66473-8580-4b84-b260-90b73cfc9e09}, !- Construction Name
  ExteriorWall,                           !- Intended Surface Type
  Mass;                                   !- Standards Construction Type

OS:Material,
  {ed6aad4a-d29f-4f4d-b08c-6125175f44a4}, !- Handle
  Wall Insulation [40],                   !- Name
  MediumRough,                            !- Roughness
  0.0793999999999999,                     !- Thickness {m}
  0.0432,                                 !- Conductivity {W/m-K}
  91,                                     !- Density {kg/m3}
  836.999999999999,                       !- Specific Heat {J/kg-K}
  0.9,                                    !- Thermal Absorptance
  0.5,                                    !- Solar Absorptance
  0.5;                                    !- Visible Absorptance

OS:Construction,
  {22687d6b-6a18-4af4-9421-4b882abdbb9d}, !- Handle
  ASHRAE 189.1-2009 ExtWall Mass ClimateZone 6, !- Name
  ,                                       !- Surface Rendering Name
  {c7129e99-ba63-4b7a-88d5-8ab242dc0554}, !- Layer 1
  {f5054f8e-cb12-4806-b769-a6cbf2049ce7}, !- Layer 2
  {0cdfa2f3-ab44-47dc-bef1-28493f373887}, !- Layer 3
  {4a97dde0-3f4e-472b-b46b-dc818e71c450}; !- Layer 4

OS:StandardsInformation:Construction,
  {7e85b2e4-7152-4896-8736-5c5cb221ab82}, !- Handle
  {22687d6b-6a18-4af4-9421-4b882abdbb9d}, !- Construction Name
  ExteriorWall,                           !- Intended Surface Type
  Mass;                                   !- Standards Construction Type

OS:Material,
  {0cdfa2f3-ab44-47dc-bef1-28493f373887}, !- Handle
  Wall Insulation [42],                   !- Name
  MediumRough,                            !- Roughness
  0.0913999999999999,                     !- Thickness {m}
  0.0432,                                 !- Conductivity {W/m-K}
  91,                                     !- Density {kg/m3}
  836.999999999999,                       !- Specific Heat {J/kg-K}
  0.9,                                    !- Thermal Absorptance
  0.5,                                    !- Solar Absorptance
  0.5;                                    !- Visible Absorptance

OS:Construction,
  {847d944b-c2a0-4ae2-81d4-799558a91616}, !- Handle
  ASHRAE 189.1-2009 ExtWall Mass ClimateZone 7-8, !- Name
  ,                                       !- Surface Rendering Name
  {c7129e99-ba63-4b7a-88d5-8ab242dc0554}, !- Layer 1
  {f5054f8e-cb12-4806-b769-a6cbf2049ce7}, !- Layer 2
  {834367cf-fbb4-4214-800c-024c7977e12c}, !- Layer 3
  {4a97dde0-3f4e-472b-b46b-dc818e71c450}; !- Layer 4

OS:StandardsInformation:Construction,
  {8c1394c2-e1e0-46be-81e9-6c3a5124540e}, !- Handle
  {847d944b-c2a0-4ae2-81d4-799558a91616}, !- Construction Name
  ExteriorWall,                           !- Intended Surface Type
  Mass;                                   !- Standards Construction Type

OS:Material,
  {834367cf-fbb4-4214-800c-024c7977e12c}, !- Handle
  Wall Insulation [44],                   !- Name
  MediumRough,                            !- Roughness
  0.1104,                                 !- Thickness {m}
  0.0432,                                 !- Conductivity {W/m-K}
  91,                                     !- Density {kg/m3}
  836.999999999999,                       !- Specific Heat {J/kg-K}
  0.9,                                    !- Thermal Absorptance
  0.5,                                    !- Solar Absorptance
  0.5;                                    !- Visible Absorptance

OS:Construction,
  {e76335eb-f15a-4dea-b934-b9370aa5ecb6}, !- Handle
  ASHRAE 189.1-2009 ExtWall Mass ClimateZone alt-res 1, !- Name
  ,                                       !- Surface Rendering Name
  {c7129e99-ba63-4b7a-88d5-8ab242dc0554}, !- Layer 1
  {f5054f8e-cb12-4806-b769-a6cbf2049ce7}, !- Layer 2
  {11e152dc-93cd-4344-a562-52efc5691cda}, !- Layer 3
  {4a97dde0-3f4e-472b-b46b-dc818e71c450}; !- Layer 4

OS:StandardsInformation:Construction,
  {eae9b7f5-053a-4a33-8cb6-d1fc5d30d510}, !- Handle
  {e76335eb-f15a-4dea-b934-b9370aa5ecb6}, !- Construction Name
  ExteriorWall,                           !- Intended Surface Type
  Mass;                                   !- Standards Construction Type

OS:Construction,
  {b456fd67-038f-4120-a649-d5ef3abd72f6}, !- Handle
  ASHRAE 189.1-2009 ExtWall Mass ClimateZone alt-res 2, !- Name
  ,                                       !- Surface Rendering Name
  {c7129e99-ba63-4b7a-88d5-8ab242dc0554}, !- Layer 1
  {f5054f8e-cb12-4806-b769-a6cbf2049ce7}, !- Layer 2
  {45cf0ef2-8b45-4279-9785-9da2ec938218}, !- Layer 3
  {4a97dde0-3f4e-472b-b46b-dc818e71c450}; !- Layer 4

OS:StandardsInformation:Construction,
  {0869a07b-95c3-4441-a17d-5f1145d7907c}, !- Handle
  {b456fd67-038f-4120-a649-d5ef3abd72f6}, !- Construction Name
  ExteriorWall,                           !- Intended Surface Type
  Mass;                                   !- Standards Construction Type

OS:Construction,
  {5fc537b4-e4d0-4f17-b984-862be10bb330}, !- Handle
  ASHRAE 189.1-2009 ExtWall Mass ClimateZone alt-res 3, !- Name
  ,                                       !- Surface Rendering Name
  {c7129e99-ba63-4b7a-88d5-8ab242dc0554}, !- Layer 1
  {f5054f8e-cb12-4806-b769-a6cbf2049ce7}, !- Layer 2
  {6f67fba4-936a-4561-a9a8-e2f7144aaea4}, !- Layer 3
  {4a97dde0-3f4e-472b-b46b-dc818e71c450}; !- Layer 4

OS:StandardsInformation:Construction,
  {75b0b0d3-66fd-4bac-a54a-52d408b92240}, !- Handle
  {5fc537b4-e4d0-4f17-b984-862be10bb330}, !- Construction Name
  ExteriorWall,                           !- Intended Surface Type
  Mass;                                   !- Standards Construction Type

OS:Construction,
  {5902ab7d-5227-4a18-9066-fb6cd53b0aa9}, !- Handle
  ASHRAE 189.1-2009 ExtWall Mass ClimateZone alt-res 4, !- Name
  ,                                       !- Surface Rendering Name
  {c7129e99-ba63-4b7a-88d5-8ab242dc0554}, !- Layer 1
  {f5054f8e-cb12-4806-b769-a6cbf2049ce7}, !- Layer 2
  {ed6aad4a-d29f-4f4d-b08c-6125175f44a4}, !- Layer 3
  {4a97dde0-3f4e-472b-b46b-dc818e71c450}; !- Layer 4

OS:StandardsInformation:Construction,
  {a400cd12-fc01-4ff2-a1cf-07cc7ec19f59}, !- Handle
  {5902ab7d-5227-4a18-9066-fb6cd53b0aa9}, !- Construction Name
  ExteriorWall,                           !- Intended Surface Type
  Mass;                                   !- Standards Construction Type

OS:Construction,
  {44953647-f70e-4f43-9496-3c06e77557d2}, !- Handle
  ASHRAE 189.1-2009 ExtWall Mass ClimateZone alt-res 5, !- Name
  ,                                       !- Surface Rendering Name
  {c7129e99-ba63-4b7a-88d5-8ab242dc0554}, !- Layer 1
  {f5054f8e-cb12-4806-b769-a6cbf2049ce7}, !- Layer 2
  {0cdfa2f3-ab44-47dc-bef1-28493f373887}, !- Layer 3
  {4a97dde0-3f4e-472b-b46b-dc818e71c450}; !- Layer 4

OS:StandardsInformation:Construction,
  {ab8804f4-e3e0-4cc4-a2bd-7cbbd5e0a611}, !- Handle
  {44953647-f70e-4f43-9496-3c06e77557d2}, !- Construction Name
  ExteriorWall,                           !- Intended Surface Type
  Mass;                                   !- Standards Construction Type

OS:Construction,
  {c3f48b0f-2390-463a-a11c-fdc3ac088eb5}, !- Handle
  ASHRAE 189.1-2009 ExtWall Mass ClimateZone alt-res 6, !- Name
  ,                                       !- Surface Rendering Name
  {c7129e99-ba63-4b7a-88d5-8ab242dc0554}, !- Layer 1
  {f5054f8e-cb12-4806-b769-a6cbf2049ce7}, !- Layer 2
  {834367cf-fbb4-4214-800c-024c7977e12c}, !- Layer 3
  {4a97dde0-3f4e-472b-b46b-dc818e71c450}; !- Layer 4

OS:StandardsInformation:Construction,
  {4d1c91ab-df8c-4b9a-a984-74ed03125e59}, !- Handle
  {c3f48b0f-2390-463a-a11c-fdc3ac088eb5}, !- Construction Name
  ExteriorWall,                           !- Intended Surface Type
  Mass;                                   !- Standards Construction Type

OS:Construction,
  {ef21fbe4-6e81-422f-8470-9407d0967665}, !- Handle
  ASHRAE 189.1-2009 ExtWall Mass ClimateZone alt-res 7, !- Name
  ,                                       !- Surface Rendering Name
  {c7129e99-ba63-4b7a-88d5-8ab242dc0554}, !- Layer 1
  {f5054f8e-cb12-4806-b769-a6cbf2049ce7}, !- Layer 2
  {834367cf-fbb4-4214-800c-024c7977e12c}, !- Layer 3
  {4a97dde0-3f4e-472b-b46b-dc818e71c450}; !- Layer 4

OS:StandardsInformation:Construction,
  {9faf58d4-16ea-49fe-8c5f-d611aec6ae3a}, !- Handle
  {ef21fbe4-6e81-422f-8470-9407d0967665}, !- Construction Name
  ExteriorWall,                           !- Intended Surface Type
  Mass;                                   !- Standards Construction Type

OS:Construction,
  {714f77ed-7767-4498-a120-86689b28ed17}, !- Handle
  ASHRAE 189.1-2009 ExtWall Mass ClimateZone alt-res 8, !- Name