
OS:Version,
  {afc3ce9c-abb4-420d-8421-833a214ef5d8}, !- Handle
  1.3.3;                                  !- Version Identifier

OS:Construction,
  {9a4b16a4-6ba4-4321-bce7-337841f0cc22}, !- Handle
  ASHRAE 189.1-2009 AtticFloor ClimateZone 1-8, !- Name
  ,                                       !- Surface Rendering Name
  {276c9eff-48d3-4f2d-9ab7-50c9d6440e35}, !- Layer 1
  {5f03a574-ba25-4f6b-9cde-8992fd7a8429}, !- Layer 2
  {276c9eff-48d3-4f2d-9ab7-50c9d6440e35}; !- Layer 3

OS:StandardsInformation:Construction,
  {7b3740c2-8cf3-487d-ac5c-7e223507e16a}, !- Handle
  {9a4b16a4-6ba4-4321-bce7-337841f0cc22}, !- Construction Name
  AtticFloor,                             !- Intended Surface Type
  WoodFramed;                             !- Standards Construction Type

OS:Material,
  {276c9eff-48d3-4f2d-9ab7-50c9d6440e35}, !- Handle
  1/2IN Gypsum,                           !- Name
  Smooth,                                 !- Roughness
  0.0127,                                 !- Thickness {m}
  0.16,                                   !- Conductivity {W/m-K}
  784.9,                                  !- Density {kg/m3}
  830.000000000001,                       !- Specific Heat {J/kg-K}
  0.9,                                    !- Thermal Absorptance
  0.4,                                    !- Solar Absorptance
  0.4;                                    !- Visible Absorptance

OS:Material,
  {5f03a574-ba25-4f6b-9cde-8992fd7a8429}, !- Handle
  AtticFloor Insulation,                  !- Name
  MediumRough,                            !- Roughness
  0.2379,                                 !- Thickness {m}
  0.049,                                  !- Conductivity {W/m-K}
  265,                                    !- Density {kg/m3}
  836.800000000001,                       !- Specific Heat {J/kg-K}
  0.9,                                    !- Thermal Absorptance
  0.7,                                    !- Solar Absorptance
  0.7;                                    !- Visible Absorptance

OS:Construction,
  {89312807-f1c2-4b85-a926-44ff073a92bc}, !- Handle
  ASHRAE 189.1-2009 ExtRoof IEAD ClimateZone 1, !- Name
  ,                                       !- Surface Rendering Name
  {d56cb616-4218-4f84-adc9-e387bda6bc1c}, !- Layer 1
  {e74c3338-6c4f-46f2-8708-476819c56a66}, !- Layer 2
  {0706b087-76ef-4346-bbb3-5fb3cbc90b6a}; !- Layer 3

OS:StandardsInformation:Construction,
  {48714e0f-696b-43d0-8257-21a04ef79198}, !- Handle
  {89312807-f1c2-4b85-a926-44ff073a92bc}, !- Construction Name
  ExteriorRoof,                           !- Intended Surface Type
  IEAD;                                   !- Standards Construction Type

OS:Material,
  {d56cb616-4218-4f84-adc9-e387bda6bc1c}, !- Handle
  Roof Membrane,                          !- Name
  VeryRough,                              !- Roughness
  0.0095,                                 !- Thickness {m}
  0.16,                                   !- Conductivity {W/m-K}
  1121.29,                                !- Density {kg/m3}
  1460,                                   !- Specific Heat {J/kg-K}
  0.9,                                    !- Thermal Absorptance
  0.7,                                    !- Solar Absorptance
  0.7;                                    !- Visible Absorptance

OS:Material,
  {e74c3338-6c4f-46f2-8708-476819c56a66}, !- Handle
  Roof Insulation [18],                   !- Name
  MediumRough,                            !- Roughness
  0.1693,                                 !- Thickness {m}
  0.049,                                  !- Conductivity {W/m-K}
  265,                                    !- Density {kg/m3}
  836.800000000001,                       !- Specific Heat {J/kg-K}
  0.9,                                    !- Thermal Absorptance
  0.7,                                    !- Solar Absorptance
  0.7;                                    !- Visible Absorptance

OS:Material,
  {0706b087-76ef-4346-bbb3-5fb3cbc90b6a}, !- Handle
  Metal Decking,                          !- Name
  MediumSmooth,                           !- Roughness
  0.0015,                                 !- Thickness {m}
  45.006,                                 !- Conductivity {W/m-K}
  7680,                                   !- Density {kg/m3}
  418.4,                                  !- Specific Heat {J/kg-K}
  0.9,                                    !- Thermal Absorptance
  0.6,                                    !- Solar Absorptance
  0.6;                                    !- Visible Absorptance

OS:Construction,
  {57b8899f-e104-4128-ae36-eddc3cd703b2}, !- Handle
  ASHRAE 189.1-2009 ExtRoof IEAD ClimateZone 2-5, !- Name
  ,                                       !- Surface Rendering Name
  {d56cb616-4218-4f84-adc9-e387bda6bc1c}, !- Layer 1
  {617042c4-207b-4ae9-a6bd-77c39b7c4dcd}, !- Layer 2
  {0706b087-76ef-4346-bbb3-5fb3cbc90b6a}; !- Layer 3

OS:StandardsInformation:Construction,
  {7aa35bef-b4b5-4803-b010-33937715dc7d}, !- Handle
  {57b8899f-e104-4128-ae36-eddc3cd703b2}, !- Construction Name
  ExteriorRoof,                           !- Intended Surface Type
  IEAD;                                   !- Standards Construction Type

OS:Material,
  {617042c4-207b-4ae9-a6bd-77c39b7c4dcd}, !- Handle
  Roof Insulation [21],                   !- Name
  MediumRough,                            !- Roughness
  0.2105,                                 !- Thickness {m}
  0.049,                                  !- Conductivity {W/m-K}
  265,                                    !- Density {kg/m3}
  836.800000000001,                       !- Specific Heat {J/kg-K}
  0.9,                                    !- Thermal Absorptance
  0.7,                                    !- Solar Absorptance
  0.7;                                    !- Visible Absorptance

OS:Construction,
  {bcd52ed4-4624-4f22-b1e0-f7f504dbbc5d}, !- Handle
  ASHRAE 189.1-2009 ExtRoof IEAD ClimateZone 6, !- Name
  ,                                       !- Surface Rendering Name
  {d56cb616-4218-4f84-adc9-e387bda6bc1c}, !- Layer 1
  {277928a8-0b05-4ba1-8660-0351ad97812a}, !- Layer 2
  {0706b087-76ef-4346-bbb3-5fb3cbc90b6a}; !- Layer 3

OS:StandardsInformation:Construction,
  {0a6e03fd-1eff-4593-99d7-155dafa3910b}, !- Handle
  {bcd52ed4-4624-4f22-b1e0-f7f504dbbc5d}, !- Construction Name
  ExteriorRoof,                           !- Intended Surface Type
  IEAD;                                   !- Standards Construction Type

OS:Material,
  {277928a8-0b05-4ba1-8660-0351ad97812a}, !- Handle
  Roof Insulation [24],                   !- Name
  MediumRough,                            !- Roughness
  0.260100000000001,                      !- Thickness {m}
  0.049,                                  !- Conductivity {W/m-K}
  265,                                    !- Density {kg/m3}
  836.800000000001,                       !- Specific Heat {J/kg-K}
  0.9,                                    !- Thermal Absorptance
  0.7,                                    !- Solar Absorptance
  0.7;                                    !- Visible Absorptance

OS:Construction,
  {b3bd0941-08f5-4b19-a151-28ddcb66ad27}, !- Handle
  ASHRAE 189.1-2009 ExtRoof IEAD ClimateZone 7-8, !- Name
  ,                                       !- Surface Rendering Name
  {d56cb616-4218-4f84-adc9-e387bda6bc1c}, !- Layer 1
  {cf531691-183b-4d3c-b6a2-addcf42a334f}, !- Layer 2
  {0706b087-76ef-4346-bbb3-5fb3cbc90b6a}; !- Layer 3

OS:StandardsInformation:Construction,
  {63ca55a0-fc37-44ea-a7a1-0fa2fdaa1338}, !- Handle
  {b3bd0941-08f5-4b19-a151-28ddcb66ad27}, !- Construction Name
  ExteriorRoof,                           !- Intended Surface Type
  IEAD;                                   !- Standards Construction Type

OS:Material,
  {cf531691-183b-4d3c-b6a2-addcf42a334f}, !- Handle
  Roof Insulation [26],                   !- Name
  MediumRough,                            !- Roughness
  0.2941,                                 !- Thickness {m}
  0.049,                                  !- Conductivity {W/m-K}
  265,                                    !- Density {kg/m3}
  836.800000000001,                       !- Specific Heat {J/kg-K}
  0.9,                                    !- Thermal Absorptance
  0.7,                                    !- Solar Absorptance
  0.7;                                    !- Visible Absorptance

OS:Construction,
  {f3d82001-9117-493a-8c1b-ea64432234bc}, !- Handle
  ASHRAE 189.1-2009 ExtRoof Metal ClimateZone 1, !- Name
  ,                                       !- Surface Rendering Name
  {ca14090f-3e3e-44d8-9834-685c9f2b8274}, !- Layer 1
  {60472fb0-2886-45ca-ae49-7510d676fff0}, !- Layer 2
  {0706b087-76ef-4346-bbb3-5fb3cbc90b6a}; !- Layer 3

OS:StandardsInformation:Construction,
  {feec05c1-bbe0-44ed-a4cc-3671a40542f4}, !- Handle
  {f3d82001-9117-493a-8c1b-ea64432234bc}, !- Construction Name
  ExteriorRoof,                           !- Intended Surface Type
  Metal;                                  !- Standards Construction Type

OS:Material,
  {ca14090f-3e3e-44d8-9834-685c9f2b8274}, !- Handle
  Metal Roofing,                          !- Name
  MediumSmooth,                           !- Roughness
  0.0015,                                 !- Thickness {m}
  45.006,                                 !- Conductivity {W/m-K}
  7680,                                   !- Density {kg/m3}
  418.4,                                  !- Specific Heat {J/kg-K}
  0.9,                                    !- Thermal Absorptance
  0.6,                                    !- Solar Absorptance
  0.6;                                    !- Visible Absorptance

OS:Material,
  {60472fb0-2886-45ca-ae49-7510d676fff0}, !- Handle
  Roof Insulation [19],                   !- Name
  MediumRough,                            !- Roughness
  0.1868,                                 !- Thickness {m}
  0.049,                                  !- Conductivity {W/m-K}
  265,                                    !- Density {kg/m3}
  836.800000000001,                       !- Specific Heat {J/kg-K}
  0.9,                                    !- Thermal Absorptance
  0.7,                                    !- Solar Absorptance
  0.7;                                    !- Visible Absorptance

OS:Construction,
  {8a4a3bb7-1c41-41d7-8620-e7323f99722b}, !- Handle
  ASHRAE 189.1-2009 ExtRoof Metal ClimateZone 2-5, !- Name
  ,                                       !- Surface Rendering Name
  {ca14090f-3e3e-44d8-9834-685c9f2b8274}, !- Layer 1
  {f708be7f-07d8-4b4d-a3c5-ef9633327869}, !- Layer 2
  {0706b087-76ef-4346-bbb3-5fb3cbc90b6a}; !- Layer 3

OS:StandardsInformation:Construction,
  {c2829c08-45e1-4de3-a3e5-c2a393639b3a}, !- Handle
  {8a4a3bb7-1c41-41d7-8620-e7323f99722b}, !- Construction Name
  ExteriorRoof,                           !- Intended Surface Type
  Metal;                                  !- Standards Construction Type

OS:Material,
  {f708be7f-07d8-4b4d-a3c5-ef9633327869}, !- Handle
  Roof Insulation [22],                   !- Name
  MediumRough,                            !- Roughness
  0.2358,                                 !- Thickness {m}
  0.049,                                  !- Conductivity {W/m-K}
  265,                                    !- Density {kg/m3}
  836.800000000001,                       !- Specific Heat {J/kg-K}
  0.9,                                    !- Thermal Absorptance
  0.7,                                    !- Solar Absorptance
  0.7;                                    !- Visible Absorptance

OS:Construction,
  {76e917c4-0b37-440b-820a-ced12a30686a}, !- Handle
  ASHRAE 189.1-2009 ExtRoof Metal ClimateZone 6, !- Name
  ,                                       !- Surface Rendering Name
  {ca14090f-3e3e-44d8-9834-685c9f2b8274}, !- Layer 1
  {3d022104-c482-4875-a9db-9a58509470ce}, !- Layer 2
  {0706b087-76ef-4346-bbb3-5fb3cbc90b6a}; !- Layer 3

OS:StandardsInformation:Construction,
  {9039fcb0-f345-4c86-bba7-737b3c83e10a}, !- Handle
  {76e917c4-0b37-440b-820a-ced12a30686a}, !- Construction Name
  ExteriorRoof,                           !- Intended Surface Type
  Metal;                                  !- Standards Construction Type

OS:Material,
  {3d022104-c482-4875-a9db-9a58509470ce}, !- Handle
  Roof Insulation [25],                   !- Name
  MediumRough,                            !- Roughness
  0.263,                                  !- Thickness {m}
  0.049,                                  !- Conductivity {W/m-K}
  265,                                    !- Density {kg/m3}
  836.800000000001,                       !- Specific Heat {J/kg-K}
  0.9,                                    !- Thermal Absorptance
  0.7,                                    !- Solar Absorptance
  0.7;                                    !- Visible Absorptance

OS:Construction,
  {2fecac41-a80c-410e-ab81-ac902840ee9d}, !- Handle
  ASHRAE 189.1-2009 ExtRoof Metal ClimateZone 7-8, !- Name
  ,                                       !- Surface Rendering Name
  {ca14090f-3e3e-44d8-9834-685c9f2b8274}, !- Layer 1
  {a6e02c7a-be97-4e74-9d8e-2ef2457aef30}, !- Layer 2
  {0706b087-76ef-4346-bbb3-5fb3cbc90b6a}; !- Layer 3

OS:StandardsInformation:Construction,
  {936939da-ae20-4a7d-8e2e-e0619687a501}, !- Handle
  {2fecac41-a80c-410e-ab81-ac902840ee9d}, !- Construction Name
  ExteriorRoof,                           !- Intended Surface Type
  Metal;                                  !- Standards Construction Type

OS:Material,
  {a6e02c7a-be97-4e74-9d8e-2ef2457aef30}, !- Handle
  Roof Insulation [27],                   !- Name
  MediumRough,                            !- Roughness
  0.297000000000001,                      !- Thickness {m}
  0.049,                                  !- Conductivity {W/m-K}
  265,                                    !- Density {kg/m3}
  836.800000000001,                       !- Specific Heat {J/kg-K}
  0.9,                                    !- Thermal Absorptance
  0.7,                                    !- Solar Absorptance
  0.7;                                    !- Visible Absorptance

OS:Construction,
  {9da7bce7-5808-4527-81e6-966cba022dc4}, !- Handle
  ASHRAE 189.1-2009 ExtWall Mass ClimateZone 1, !- Name
  ,                                       !- Surface Rendering Name
  {a128a675-8910-417c-992d-7dd4650ba826}, !- Layer 1
  {e3c313d2-b4f3-457a-b66b-8cb4a88d5cc8}, !- Layer 2
  {0f42998c-0293-4690-8bf6-2b3b3c3a0096}, !- Layer 3
  {276c9eff-48d3-4f2d-9ab7-50c9d6440e35}; !- Layer 4

OS:StandardsInformation:Construction,
  {4103c65e-afc4-43f7-b87f-42c5e0b1eb40}, !- Handle
  {9da7bce7-5808-4527-81e6-966cba022dc4}, !- Construction Name
  ExteriorWall,                           !- Intended Surface Type
  Mass;                                   !- Standards Construction Type

OS:Material,
  {a128a675-8910-417c-992d-7dd4650ba826}, !- Handle
  1IN Stucco,                             !- Name
  Smooth,                                 !- Roughness
  0.0253,                                 !- Thickness {m}
  0.691799999999999,                      !- Conductivity {W/m-K}
  1858,                                   !- Density {kg/m3}
  836.999999999999,                       !- Specific Heat {J/kg-K}
  0.9,                                    !- Thermal Absorptance
  0.92,                                   !- Solar Absorptance
  0.92;                                   !- Visible Absorptance

OS:Material,
  {e3c313d2-b4f3-457a-b66b-8cb4a88d5cc8}, !- Handle
  8IN Concrete HW,                        !- Name
  MediumRough,                            !- Roughness
  0.2033,                                 !- Thickness {m}
  1.72959999999999,                       !- Conductivity {W/m-K}
  2242.99999999999,                       !- Density {kg/m3}
  836.999999999999,                       !- Specific Heat {J/kg-K}
  0.9,                                    !- Thermal Absorptance
  0.65,                                   !- Solar Absorptance
  0.65;                                   !- Visible Absorptance

OS:Material,
  {0f42998c-0293-4690-8bf6-2b3b3c3a0096}, !- Handle
  Wall Insulation [31],                   !- Name
  MediumRough,                            !- Roughness
  0.0337000000000001,                     !- Thickness {m}
  0.0432,                                 !- Conductivity {W/m-K}
  91,                                     !- Density {kg/m3}
  836.999999999999,                       !- Specific Heat {J/kg-K}
  0.9,                                    !- Thermal Absorptance
  0.5,                                    !- Solar Absorptance
  0.5;                                    !- Visible Absorptance

OS:Construction,
  {56f44664-d183-4f18-8da0-5822954cb31a}, !- Handle
  ASHRAE 189.1-2009 ExtWall Mass ClimateZone 2, !- Name
  ,                                       !- Surface Rendering Name
  {a128a675-8910-417c-992d-7dd4650ba826}, !- Layer 1
  {e3c313d2-b4f3-457a-b66b-8cb4a88d5cc8}, !- Layer 2
  {621db0a0-4311-489d-9e90-33ce77b54753}, !- Layer 3
  {276c9eff-48d3-4f2d-9ab7-50c9d6440e35}; !- Layer 4

OS:StandardsInformation:Construction,
  {4772a6f9-3b66-49a7-aab9-e56064a515b7}, !- Handle
  {56f44664-d183-4f18-8da0-5822954cb31a}, !- Construction Name
  ExteriorWall,                           !- Intended Surface Type
  Mass;                                   !- Standards Construction Type

OS:Material,
  {621db0a0-4311-489d-9e90-33ce77b54753}, !- Handle
  Wall Insulation [35],                   !- Name
  MediumRough,                            !- Roughness
  0.0452,                                 !- Thickness {m}
  0.0432,                                 !- Conductivity {W/m-K}
  91,                                     !- Density {kg/m3}
  836.999999999999,                       !- Specific Heat {J/kg-K}
  0.9,                                    !- Thermal Absorptance
  0.5,                                    !- Solar Absorptance
  0.5;                                    !- Visible Absorptance

OS:Construction,
  {b161deb1-27dc-4985-a119-75653c4e2710}, !- Handle
  ASHRAE 189.1-2009 ExtWall Mass ClimateZone 3, !- Name
  ,                                       !- Surface Rendering Name
  {a128a675-8910-417c-992d-7dd4650ba826}, !- Layer 1
  {e3c313d2-b4f3-457a-b66b-8cb4a88d5cc8}, !- Layer 2
  {04951e84-cd8f-4f3d-8b92-9b3cb3e33a27}, !- Layer 3
  {276c9eff-48d3-4f2d-9ab7-50c9d6440e35}; !- Layer 4

OS:StandardsInformation:Construction,
  {73cf093e-435e-4308-88c4-4a13435d208a}, !- Handle
  {b161deb1-27dc-4985-a119-75653c4e2710}, !- Construction Name
  ExteriorWall,                           !- Intended Surface Type
  Mass;                                   !- Standards Construction Type

OS:Material,
  {04951e84-cd8f-4f3d-8b92-9b3cb3e33a27}, !- Handle
  Wall Insulation [36],                   !- Name
  MediumRough,                            !- Roughness
  0.0565999999999999,                     !- Thickness {m}
  0.0432,                                 !- Conductivity {W/m-K}
  91,                                     !- Density {kg/m3}
  836.999999999999,                       !- Specific Heat {J/kg-K}
  0.9,                                    !- Thermal Absorptance
  0.5,                                    !- Solar Absorptance
  0.5;                                    !- Visible Absorptance

OS:Construction,
  {a2bc3090-7ac7-48f6-9da1-6b3c7f17c67a}, !- Handle
  ASHRAE 189.1-2009 ExtWall Mass ClimateZone 4, !- Name
  ,                                       !- Surface Rendering Name
  {a128a675-8910-417c-992d-7dd4650ba826}, !- Layer 1
  {e3c313d2-b4f3-457a-b66b-8cb4a88d5cc8}, !- Layer 2
  {51247bb6-7044-4111-b654-ea6c5adf2e17}, !- Layer 3
  {276c9eff-48d3-4f2d-9ab7-50c9d6440e35}; !- Layer 4

OS:StandardsInformation:Construction,
  {9564bb78-e098-47f3-b16c-8cc5087cc48a}, !- Handle
  {a2bc3090-7ac7-48f6-9da1-6b3c7f17c67a}, !- Construction Name
  ExteriorWall,                           !- Intended Surface Type
  Mass;                                   !- Standards Construction Type

OS:Material,
  {51247bb6-7044-4111-b654-ea6c5adf2e17}, !- Handle
  Wall Insulation [37],                   !- Name
  MediumRough,                            !- Roughness
  0.0680999999999999,                     !- Thickness {m}
  0.0432,                                 !- Conductivity {W/m-K}
  91,                                     !- Density {kg/m3}
  836.999999999999,                       !- Specific Heat {J/kg-K}
  0.9,                                    !- Thermal Absorptance
  0.5,                                    !- Solar Absorptance
  0.5;                                    !- Visible Absorptance

OS:Construction,
  {7bed9207-f983-4fdd-befc-594e11167765}, !- Handle
  ASHRAE 189.1-2009 ExtWall Mass ClimateZone 5, !- Name
  ,                                       !- Surface Rendering Name
  {a128a675-8910-417c-992d-7dd4650ba826}, !- Layer 1
  {e3c313d2-b4f3-457a-b66b-8cb4a88d5cc8}, !- Layer 2
  {e87d44fa-17d0-4f9d-9375-ded458d8d271}, !- Layer 3
  {276c9eff-48d3-4f2d-9ab7-50c9d6440e35}; !- Layer 4

OS:StandardsInformation:Construction,
  {bfb3bebf-42b1-4a23-b14f-a79d10618d97}, !- Handle
  {7bed9207-f983-4fdd-befc-594e11167765}, !- Construction Name
  ExteriorWall,                           !- Intended Surface Type
  Mass;                                   !- Standards Construction Type

OS:Material,
  {e87d44fa-17d0-4f9d-9375-ded458d8d271}, !- Handle
  Wall Insulation [40],                   !- Name
  MediumRough,                            !- Roughness
  0.0793999999999999,                     !- Thickness {m}
  0.0432,                                 !- Conductivity {W/m-K}
  91,                                     !- Density {kg/m3}
  836.999999999999,                       !- Specific Heat {J/kg-K}
  0.9,                                    !- Thermal Absorptance
  0.5,                                    !- Solar Absorptance
  0.5;                                    !- Visible Absorptance

OS:Construction,
  {685f6097-b586-474c-9350-dcd684c89809}, !- Handle
  ASHRAE 189.1-2009 ExtWall Mass ClimateZone 6, !- Name
  ,                                       !- Surface Rendering Name
  {a128a675-8910-417c-992d-7dd4650ba826}, !- Layer 1
  {e3c313d2-b4f3-457a-b66b-8cb4a88d5cc8}, !- Layer 2
  {8464d383-90eb-4ca2-ad7a-2f240db97d99}, !- Layer 3
  {276c9eff-48d3-4f2d-9ab7-50c9d6440e35}; !- Layer 4

OS:StandardsInformation:Construction,
  {7f7ca368-b5a0-4c5e-9f27-9c064f9b9691}, !- Handle
  {685f6097-b586-474c-9350-dcd684c89809}, !- Construction Name
  ExteriorWall,                           !- Intended Surface Type
  Mass;                                   !- Standards Construction Type

OS:Material,
  {8464d383-90eb-4ca2-ad7a-2f240db97d99}, !- Handle
  Wall Insulation [42],                   !- Name
  MediumRough,                            !- Roughness
  0.0913999999999999,                     !- Thickness {m}
  0.0432,                                 !- Conductivity {W/m-K}
  91,                                     !- Density {kg/m3}
  836.999999999999,                       !- Specific Heat {J/kg-K}
  0.9,                                    !- Thermal Absorptance
  0.5,                                    !- Solar Absorptance
  0.5;                                    !- Visible Absorptance

OS:Construction,
  {5ee2986f-d57c-4766-9f9f-9101997ef0ea}, !- Handle
  ASHRAE 189.1-2009 ExtWall Mass ClimateZone 7-8, !- Name
  ,                                       !- Surface Rendering Name
  {a128a675-8910-417c-992d-7dd4650ba826}, !- Layer 1
  {e3c313d2-b4f3-457a-b66b-8cb4a88d5cc8}, !- Layer 2
  {f995aa7f-f375-4243-bdcd-72b6f21add50}, !- Layer 3
  {276c9eff-48d3-4f2d-9ab7-50c9d6440e35}; !- Layer 4

OS:StandardsInformation:Construction,
  {467cc74c-1b6e-42a1-9684-97b38728e34b}, !- Handle
  {5ee2986f-d57c-4766-9f9f-9101997ef0ea}, !- Construction Name
  ExteriorWall,                           !- Intended Surface Type
  Mass;                                   !- Standards Construction Type

OS:Material,
  {f995aa7f-f375-4243-bdcd-72b6f21add50}, !- Handle
  Wall Insulation [44],                   !- Name
  MediumRough,                            !- Roughness
  0.1104,                                 !- Thickness {m}
  0.0432,                                 !- Conductivity {W/m-K}
  91,                                     !- Density {kg/m3}
  836.999999999999,                       !- Specific Heat {J/kg-K}
  0.9,                                    !- Thermal Absorptance
  0.5,                                    !- Solar Absorptance
  0.5;                                    !- Visible Absorptance

OS:Construction,
  {29c3b89d-d33c-4525-8e45-7a3ca3f84c46}, !- Handle
  ASHRAE 189.1-2009 ExtWall Mass ClimateZone alt-res 1, !- Name
  ,                                       !- Surface Rendering Name
  {a128a675-8910-417c-992d-7dd4650ba826}, !- Layer 1
  {e3c313d2-b4f3-457a-b66b-8cb4a88d5cc8}, !- Layer 2
  {621db0a0-4311-489d-9e90-33ce77b54753}, !- Layer 3
  {276c9eff-48d3-4f2d-9ab7-50c9d6440e35}; !- Layer 4

OS:StandardsInformation:Construction,
  {41b994cc-d3b5-46e7-9522-4af122b5b0d1}, !- Handle
  {29c3b89d-d33c-4525-8e45-7a3ca3f84c46}, !- Construction Name
  ExteriorWall,                           !- Intended Surface Type
  Mass;                                   !- Standards Construction Type

OS:Construction,
  {16975520-bbc3-4388-9386-2526ae3ba0d4}, !- Handle
  ASHRAE 189.1-2009 ExtWall Mass ClimateZone alt-res 2, !- Name
  ,                                       !- Surface Rendering Name
  {a128a675-8910-417c-992d-7dd4650ba826}, !- Layer 1
  {e3c313d2-b4f3-457a-b66b-8cb4a88d5cc8}, !- Layer 2
  {04951e84-cd8f-4f3d-8b92-9b3cb3e33a27}, !- Layer 3
  {276c9eff-48d3-4f2d-9ab7-50c9d6440e35}; !- Layer 4

OS:StandardsInformation:Construction,
  {afa3f4dc-d422-49d5-8ef1-838fe0b36d5c}, !- Handle
  {16975520-bbc3-4388-9386-2526ae3ba0d4}, !- Construction Name
  ExteriorWall,                           !- Intended Surface Type
  Mass;                                   !- Standards Construction Type

OS:Construction,
  {fc96076b-1a19-4789-89a4-1f2be7074abf}, !- Handle
  ASHRAE 189.1-2009 ExtWall Mass ClimateZone alt-res 3, !- Name
  ,                                       !- Surface Rendering Name
  {a128a675-8910-417c-992d-7dd4650ba826}, !- Layer 1
  {e3c313d2-b4f3-457a-b66b-8cb4a88d5cc8}, !- Layer 2
  {51247bb6-7044-4111-b654-ea6c5adf2e17}, !- Layer 3
  {276c9eff-48d3-4f2d-9ab7-50c9d6440e35}; !- Layer 4

OS:StandardsInformation:Construction,
  {6cf68493-7f54-4914-be25-8a239270eddc}, !- Handle
  {fc96076b-1a19-4789-89a4-1f2be7074abf}, !- Construction Name
  ExteriorWall,                           !- Intended Surface Type
  Mass;                                   !- Standards Construction Type

OS:Construction,
  {a40d9ad0-2d46-427c-8683-fa68eff58000}, !- Handle
  ASHRAE 189.1-2009 ExtWall Mass ClimateZone alt-res 4, !- Name
  ,                                       !- Surface Rendering Name
  {a128a675-8910-417c-992d-7dd4650ba826}, !- Layer 1
  {e3c313d2-b4f3-457a-b66b-8cb4a88d5cc8}, !- Layer 2
  {e87d44fa-17d0-4f9d-9375-ded458d8d271}, !- Layer 3
  {276c9eff-48d3-4f2d-9ab7-50c9d6440e35}; !- Layer 4

OS:StandardsInformation:Construction,
  {3cb7d686-fffd-450d-be0a-6721d23db3d5}, !- Handle
  {a40d9ad0-2d46-427c-8683-fa68eff58000}, !- Construction Name
  ExteriorWall,                           !- Intended Surface Type
  Mass;                                   !- Standards Construction Type

OS:Construction,
  {9e3b08e7-1992-42ec-bd44-fa22df73bae4}, !- Handle
  ASHRAE 189.1-2009 ExtWall Mass ClimateZone alt-res 5, !- Name
  ,                                       !- Surface Rendering Name
  {a128a675-8910-417c-992d-7dd4650ba826}, !- Layer 1
  {e3c313d2-b4f3-457a-b66b-8cb4a88d5cc8}, !- Layer 2
  {8464d383-90eb-4ca2-ad7a-2f240db97d99}, !- Layer 3
  {276c9eff-48d3-4f2d-9ab7-50c9d6440e35}; !- Layer 4

OS:StandardsInformation:Construction,
  {53662e63-4be2-4fc2-905a-121facc17bae}, !- Handle
  {9e3b08e7-1992-42ec-bd44-fa22df73bae4}, !- Construction Name
  ExteriorWall,                           !- Intended Surface Type
  Mass;                                   !- Standards Construction Type

OS:Construction,
  {e4259bb7-6a23-4623-abf8-01796e9f7e19}, !- Handle
  ASHRAE 189.1-2009 ExtWall Mass ClimateZone alt-res 6, !- Name
  ,                                       !- Surface Rendering Name
  {a128a675-8910-417c-992d-7dd4650ba826}, !- Layer 1
  {e3c313d2-b4f3-457a-b66b-8cb4a88d5cc8}, !- Layer 2
  {f995aa7f-f375-4243-bdcd-72b6f21add50}, !- Layer 3
  {276c9eff-48d3-4f2d-9ab7-50c9d6440e35}; !- Layer 4

OS:StandardsInformation:Construction,
  {3d95aca5-39b5-4314-a6c7-b701744cbb92}, !- Handle
  {e4259bb7-6a23-4623-abf8-01796e9f7e19}, !- Construction Name
  ExteriorWall,                           !- Intended Surface Type
  Mass;                                   !- Standards Construction Type

OS:Construction,
  {4dff9a6f-2e1d-4035-8e22-469601e78fda}, !- Handle
  ASHRAE 189.1-2009 ExtWall Mass ClimateZone alt-res 7, !- Name
  ,                                       !- Surface Rendering Name
  {a128a675-8910-417c-992d-7dd4650ba826}, !- Layer 1
  {e3c313d2-b4f3-457a-b66b-8cb4a88d5cc8}, !- Layer 2
  {f995aa7f-f375-4243-bdcd-72b6f21add50}, !- Layer 3
  {276c9eff-48d3-4f2d-9ab7-50c9d6440e35}; !- Layer 4

OS:StandardsInformation:Construction,
  {a89a7dfe-a168-48f1-a787-081c739b7925}, !- Handle
  {4dff9a6f-2e1d-4035-8e22-469601e78fda}, !- Construction Name
  ExteriorWall,                           !- Intended Surface Type