
OS:Version,
  {c3315398-079c-4bb8-9ce8-aa3c7712847d}, !- Handle
  1.4.0;                                  !- Version Identifier

OS:Construction,
  {0421de10-e85a-4752-9973-d98246793e4e}, !- Handle
  ASHRAE 189.1-2009 AtticFloor ClimateZone 1-8, !- Name
  ,                                       !- Surface Rendering Name
  {53e84ce0-7775-41c1-9828-53dc797d1b40}, !- Layer 1
  {e29bb4da-c43c-4b15-bb39-65c6a94c8a45}, !- Layer 2
  {53e84ce0-7775-41c1-9828-53dc797d1b40}; !- Layer 3

OS:StandardsInformation:Construction,
  {7842bea8-6b5c-4365-80cb-b6beea997526}, !- Handle
  {0421de10-e85a-4752-9973-d98246793e4e}, !- Construction Name
  AtticFloor,                             !- Intended Surface Type
  WoodFramed;                             !- Standards Construction Type

OS:Material,
  {53e84ce0-7775-41c1-9828-53dc797d1b40}, !- Handle
  1/2IN Gypsum,                           !- Name
  Smooth,                                 !- Roughness
  0.0127,                                 !- Thickness {m}
  0.16,                                   !- Conductivity {W/m-K}
  784.9,                                  !- Density {kg/m3}
  830.000000000001,                       !- Specific Heat {J/kg-K}
  0.9,                                    !- Thermal Absorptance
  0.4,                                    !- Solar Absorptance
  0.4;                                    !- Visible Absorptance

OS:Material,
  {e29bb4da-c43c-4b15-bb39-65c6a94c8a45}, !- Handle
  AtticFloor Insulation,                  !- Name
  MediumRough,                            !- Roughness
  0.2379,                                 !- Thickness {m}
  0.049,                                  !- Conductivity {W/m-K}
  265,                                    !- Density {kg/m3}
  836.800000000001,                       !- Specific Heat {J/kg-K}
  0.9,                                    !- Thermal Absorptance
  0.7,                                    !- Solar Absorptance
  0.7;                                    !- Visible Absorptance

OS:Construction,
  {aa8e3750-91c5-4a2d-80e8-362caee0ae8a}, !- Handle
  ASHRAE 189.1-2009 ExtRoof IEAD ClimateZone 1, !- Name
  ,                                       !- Surface Rendering Name
  {51cc91d1-8b74-4a27-a45a-e3f9a75752e9}, !- Layer 1
  {943d7f43-0572-44d9-a5d6-1eb6cc2459ae}, !- Layer 2
  {3467d044-6390-4f99-a241-becf45d5b514}; !- Layer 3

OS:StandardsInformation:Construction,
  {da95b705-ce95-4535-8855-be8357f6c587}, !- Handle
  {aa8e3750-91c5-4a2d-80e8-362caee0ae8a}, !- Construction Name
  ExteriorRoof,                           !- Intended Surface Type
  IEAD;                                   !- Standards Construction Type

OS:Material,
  {51cc91d1-8b74-4a27-a45a-e3f9a75752e9}, !- Handle
  Roof Membrane,                          !- Name
  VeryRough,                              !- Roughness
  0.0095,                                 !- Thickness {m}
  0.16,                                   !- Conductivity {W/m-K}
  1121.29,                                !- Density {kg/m3}
  1460,                                   !- Specific Heat {J/kg-K}
  0.9,                                    !- Thermal Absorptance
  0.7,                                    !- Solar Absorptance
  0.7;                                    !- Visible Absorptance

OS:Material,
  {943d7f43-0572-44d9-a5d6-1eb6cc2459ae}, !- Handle
  Roof Insulation [18],                   !- Name
  MediumRough,                            !- Roughness
  0.1693,                                 !- Thickness {m}
  0.049,                                  !- Conductivity {W/m-K}
  265,                                    !- Density {kg/m3}
  836.800000000001,                       !- Specific Heat {J/kg-K}
  0.9,                                    !- Thermal Absorptance
  0.7,                                    !- Solar Absorptance
  0.7;                                    !- Visible Absorptance

OS:Material,
  {3467d044-6390-4f99-a241-becf45d5b514}, !- Handle
  Metal Decking,                          !- Name
  MediumSmooth,                           !- Roughness
  0.0015,                                 !- Thickness {m}
  45.006,                                 !- Conductivity {W/m-K}
  7680,                                   !- Density {kg/m3}
  418.4,                                  !- Specific Heat {J/kg-K}
  0.9,                                    !- Thermal Absorptance
  0.6,                                    !- Solar Absorptance
  0.6;                                    !- Visible Absorptance

OS:Construction,
  {ba21d9b3-68e4-4573-92ee-ef4b7a59929d}, !- Handle
  ASHRAE 189.1-2009 ExtRoof IEAD ClimateZone 2-5, !- Name
  ,                                       !- Surface Rendering Name
  {51cc91d1-8b74-4a27-a45a-e3f9a75752e9}, !- Layer 1
  {f7118544-0fc7-418f-b45d-07896a8f8867}, !- Layer 2
  {3467d044-6390-4f99-a241-becf45d5b514}; !- Layer 3

OS:StandardsInformation:Construction,
  {5e75ec2e-2c23-4d44-a67c-26fc764d3818}, !- Handle
  {ba21d9b3-68e4-4573-92ee-ef4b7a59929d}, !- Construction Name
  ExteriorRoof,                           !- Intended Surface Type
  IEAD;                                   !- Standards Construction Type

OS:Material,
  {f7118544-0fc7-418f-b45d-07896a8f8867}, !- Handle
  Roof Insulation [21],                   !- Name
  MediumRough,                            !- Roughness
  0.2105,                                 !- Thickness {m}
  0.049,                                  !- Conductivity {W/m-K}
  265,                                    !- Density {kg/m3}
  836.800000000001,                       !- Specific Heat {J/kg-K}
  0.9,                                    !- Thermal Absorptance
  0.7,                                    !- Solar Absorptance
  0.7;                                    !- Visible Absorptance

OS:Construction,
  {c534ae75-f186-4055-a661-b80561fd5e3a}, !- Handle
  ASHRAE 189.1-2009 ExtRoof IEAD ClimateZone 6, !- Name
  ,                                       !- Surface Rendering Name
  {51cc91d1-8b74-4a27-a45a-e3f9a75752e9}, !- Layer 1
  {0ddf6a1f-d000-40d5-84a5-a82520b772db}, !- Layer 2
  {3467d044-6390-4f99-a241-becf45d5b514}; !- Layer 3

OS:StandardsInformation:Construction,
  {8dbd7bd1-3cbd-4540-a101-b4e2da7639e9}, !- Handle
  {c534ae75-f186-4055-a661-b80561fd5e3a}, !- Construction Name
  ExteriorRoof,                           !- Intended Surface Type
  IEAD;                                   !- Standards Construction Type

OS:Material,
  {0ddf6a1f-d000-40d5-84a5-a82520b772db}, !- Handle
  Roof Insulation [24],                   !- Name
  MediumRough,                            !- Roughness
  0.260100000000001,                      !- Thickness {m}
  0.049,                                  !- Conductivity {W/m-K}
  265,                                    !- Density {kg/m3}
  836.800000000001,                       !- Specific Heat {J/kg-K}
  0.9,                                    !- Thermal Absorptance
  0.7,                                    !- Solar Absorptance
  0.7;                                    !- Visible Absorptance

OS:Construction,
  {6ca7ef7f-bdc4-4a9f-b31e-4680290b949e}, !- Handle
  ASHRAE 189.1-2009 ExtRoof IEAD ClimateZone 7-8, !- Name
  ,                                       !- Surface Rendering Name
  {51cc91d1-8b74-4a27-a45a-e3f9a75752e9}, !- Layer 1
  {518dd493-a90a-4611-af68-e3fedc3608eb}, !- Layer 2
  {3467d044-6390-4f99-a241-becf45d5b514}; !- Layer 3

OS:StandardsInformation:Construction,
  {f20e3844-0b62-4f9b-a9dc-1a3e8eb33e8f}, !- Handle
  {6ca7ef7f-bdc4-4a9f-b31e-4680290b949e}, !- Construction Name
  ExteriorRoof,                           !- Intended Surface Type
  IEAD;                                   !- Standards Construction Type

OS:Material,
  {518dd493-a90a-4611-af68-e3fedc3608eb}, !- Handle
  Roof Insulation [26],                   !- Name
  MediumRough,                            !- Roughness
  0.2941,                                 !- Thickness {m}
  0.049,                                  !- Conductivity {W/m-K}
  265,                                    !- Density {kg/m3}
  836.800000000001,                       !- Specific Heat {J/kg-K}
  0.9,                                    !- Thermal Absorptance
  0.7,                                    !- Solar Absorptance
  0.7;                                    !- Visible Absorptance

OS:Construction,
  {0b0c8356-fcfc-463d-83ef-b4d43c3db812}, !- Handle
  ASHRAE 189.1-2009 ExtRoof Metal ClimateZone 1, !- Name
  ,                                       !- Surface Rendering Name
  {fae1d634-e4f7-4199-8fec-fe68c21b6cb1}, !- Layer 1
  {4499fe30-d04f-4b02-9bc2-5387dc466da8}, !- Layer 2
  {3467d044-6390-4f99-a241-becf45d5b514}; !- Layer 3

OS:StandardsInformation:Construction,
  {87f81616-ba2f-4294-bd33-352186b7214d}, !- Handle
  {0b0c8356-fcfc-463d-83ef-b4d43c3db812}, !- Construction Name
  ExteriorRoof,                           !- Intended Surface Type
  Metal;                                  !- Standards Construction Type

OS:Material,
  {fae1d634-e4f7-4199-8fec-fe68c21b6cb1}, !- Handle
  Metal Roofing,                          !- Name
  MediumSmooth,                           !- Roughness
  0.0015,                                 !- Thickness {m}
  45.006,                                 !- Conductivity {W/m-K}
  7680,                                   !- Density {kg/m3}
  418.4,                                  !- Specific Heat {J/kg-K}
  0.9,                                    !- Thermal Absorptance
  0.6,                                    !- Solar Absorptance
  0.6;                                    !- Visible Absorptance

OS:Material,
  {4499fe30-d04f-4b02-9bc2-5387dc466da8}, !- Handle
  Roof Insulation [19],                   !- Name
  MediumRough,                            !- Roughness
  0.1868,                                 !- Thickness {m}
  0.049,                                  !- Conductivity {W/m-K}
  265,                                    !- Density {kg/m3}
  836.800000000001,                       !- Specific Heat {J/kg-K}
  0.9,                                    !- Thermal Absorptance
  0.7,                                    !- Solar Absorptance
  0.7;                                    !- Visible Absorptance

OS:Construction,
  {26dce647-7b0f-4c02-bae3-9aeac3b91682}, !- Handle
  ASHRAE 189.1-2009 ExtRoof Metal ClimateZone 2-5, !- Name
  ,                                       !- Surface Rendering Name
  {fae1d634-e4f7-4199-8fec-fe68c21b6cb1}, !- Layer 1
  {acc950ff-ee49-410b-ac66-081ee838ddb3}, !- Layer 2
  {3467d044-6390-4f99-a241-becf45d5b514}; !- Layer 3

OS:StandardsInformation:Construction,
  {84b1cf10-8d90-432b-a500-f3184f549e18}, !- Handle
  {26dce647-7b0f-4c02-bae3-9aeac3b91682}, !- Construction Name
  ExteriorRoof,                           !- Intended Surface Type
  Metal;                                  !- Standards Construction Type

OS:Material,
  {acc950ff-ee49-410b-ac66-081ee838ddb3}, !- Handle
  Roof Insulation [22],                   !- Name
  MediumRough,                            !- Roughness
  0.2358,                                 !- Thickness {m}
  0.049,                                  !- Conductivity {W/m-K}
  265,                                    !- Density {kg/m3}
  836.800000000001,                       !- Specific Heat {J/kg-K}
  0.9,                                    !- Thermal Absorptance
  0.7,                                    !- Solar Absorptance
  0.7;                                    !- Visible Absorptance

OS:Construction,
  {2de2f31f-418d-4b7a-a452-12c0077cc199}, !- Handle
  ASHRAE 189.1-2009 ExtRoof Metal ClimateZone 6, !- Name
  ,                                       !- Surface Rendering Name
  {fae1d634-e4f7-4199-8fec-fe68c21b6cb1}, !- Layer 1
  {df75a42d-e96a-4ab8-80f0-553ff8a6b13c}, !- Layer 2
  {3467d044-6390-4f99-a241-becf45d5b514}; !- Layer 3

OS:StandardsInformation:Construction,
  {b9135826-e197-4a10-b3e1-168e8ffe7027}, !- Handle
  {2de2f31f-418d-4b7a-a452-12c0077cc199}, !- Construction Name
  ExteriorRoof,                           !- Intended Surface Type
  Metal;                                  !- Standards Construction Type

OS:Material,
  {df75a42d-e96a-4ab8-80f0-553ff8a6b13c}, !- Handle
  Roof Insulation [25],                   !- Name
  MediumRough,                            !- Roughness
  0.263,                                  !- Thickness {m}
  0.049,                                  !- Conductivity {W/m-K}
  265,                                    !- Density {kg/m3}
  836.800000000001,                       !- Specific Heat {J/kg-K}
  0.9,                                    !- Thermal Absorptance
  0.7,                                    !- Solar Absorptance
  0.7;                                    !- Visible Absorptance

OS:Construction,
  {159ab66e-88cf-452c-ab92-16b5836cbb28}, !- Handle
  ASHRAE 189.1-2009 ExtRoof Metal ClimateZone 7-8, !- Name
  ,                                       !- Surface Rendering Name
  {fae1d634-e4f7-4199-8fec-fe68c21b6cb1}, !- Layer 1
  {19f26072-cbd5-4ab1-9cf7-794782d85c9d}, !- Layer 2
  {3467d044-6390-4f99-a241-becf45d5b514}; !- Layer 3

OS:StandardsInformation:Construction,
  {82c5f91a-bea5-4a6f-8dd4-a1b7658c8557}, !- Handle
  {159ab66e-88cf-452c-ab92-16b5836cbb28}, !- Construction Name
  ExteriorRoof,                           !- Intended Surface Type
  Metal;                                  !- Standards Construction Type

OS:Material,
  {19f26072-cbd5-4ab1-9cf7-794782d85c9d}, !- Handle
  Roof Insulation [27],                   !- Name
  MediumRough,                            !- Roughness
  0.297000000000001,                      !- Thickness {m}
  0.049,                                  !- Conductivity {W/m-K}
  265,                                    !- Density {kg/m3}
  836.800000000001,                       !- Specific Heat {J/kg-K}
  0.9,                                    !- Thermal Absorptance
  0.7,                                    !- Solar Absorptance
  0.7;                                    !- Visible Absorptance

OS:Construction,
  {451b47ef-453e-44af-a57a-5eb3062b03c6}, !- Handle
  ASHRAE 189.1-2009 ExtWall Mass ClimateZone 1, !- Name
  ,                                       !- Surface Rendering Name
  {02b094e2-a720-46ba-aca0-720a2cfb1d6f}, !- Layer 1
  {1391237d-1fe5-4c34-aa12-ba8428e14619}, !- Layer 2
  {46707fcb-4935-4571-b612-a5240ba643ff}, !- Layer 3
  {53e84ce0-7775-41c1-9828-53dc797d1b40}; !- Layer 4

OS:StandardsInformation:Construction,
  {55c4324f-a54e-48a4-9964-11d508b41d16}, !- Handle
  {451b47ef-453e-44af-a57a-5eb3062b03c6}, !- Construction Name
  ExteriorWall,                           !- Intended Surface Type
  Mass;                                   !- Standards Construction Type

OS:Material,
  {02b094e2-a720-46ba-aca0-720a2cfb1d6f}, !- Handle
  1IN Stucco,                             !- Name
  Smooth,                                 !- Roughness
  0.0253,                                 !- Thickness {m}
  0.691799999999999,                      !- Conductivity {W/m-K}
  1858,                                   !- Density {kg/m3}
  836.999999999999,                       !- Specific Heat {J/kg-K}
  0.9,                                    !- Thermal Absorptance
  0.92,                                   !- Solar Absorptance
  0.92;                                   !- Visible Absorptance

OS:Material,
  {1391237d-1fe5-4c34-aa12-ba8428e14619}, !- Handle
  8IN Concrete HW,                        !- Name
  MediumRough,                            !- Roughness
  0.2033,                                 !- Thickness {m}
  1.72959999999999,                       !- Conductivity {W/m-K}
  2242.99999999999,                       !- Density {kg/m3}
  836.999999999999,                       !- Specific Heat {J/kg-K}
  0.9,                                    !- Thermal Absorptance
  0.65,                                   !- Solar Absorptance
  0.65;                                   !- Visible Absorptance

OS:Material,
  {46707fcb-4935-4571-b612-a5240ba643ff}, !- Handle
  Wall Insulation [31],                   !- Name
  MediumRough,                            !- Roughness
  0.0337000000000001,                     !- Thickness {m}
  0.0432,                                 !- Conductivity {W/m-K}
  91,                                     !- Density {kg/m3}
  836.999999999999,                       !- Specific Heat {J/kg-K}
  0.9,                                    !- Thermal Absorptance
  0.5,                                    !- Solar Absorptance
  0.5;                                    !- Visible Absorptance

OS:Construction,
  {3ad49636-6734-45a1-a4a6-c33786e02348}, !- Handle
  ASHRAE 189.1-2009 ExtWall Mass ClimateZone 2, !- Name
  ,                                       !- Surface Rendering Name
  {02b094e2-a720-46ba-aca0-720a2cfb1d6f}, !- Layer 1
  {1391237d-1fe5-4c34-aa12-ba8428e14619}, !- Layer 2
  {a4b3020d-df7a-499b-b239-66357cd84c51}, !- Layer 3
  {53e84ce0-7775-41c1-9828-53dc797d1b40}; !- Layer 4

OS:StandardsInformation:Construction,
  {a7b760c3-baf6-4586-9781-8b22e2c35bed}, !- Handle
  {3ad49636-6734-45a1-a4a6-c33786e02348}, !- Construction Name
  ExteriorWall,                           !- Intended Surface Type
  Mass;                                   !- Standards Construction Type

OS:Material,
  {a4b3020d-df7a-499b-b239-66357cd84c51}, !- Handle
  Wall Insulation [35],                   !- Name
  MediumRough,                            !- Roughness
  0.0452,                                 !- Thickness {m}
  0.0432,                                 !- Conductivity {W/m-K}
  91,                                     !- Density {kg/m3}
  836.999999999999,                       !- Specific Heat {J/kg-K}
  0.9,                                    !- Thermal Absorptance
  0.5,                                    !- Solar Absorptance
  0.5;                                    !- Visible Absorptance

OS:Construction,
  {3dde6662-9662-4de7-a136-a9c1f73c109a}, !- Handle
  ASHRAE 189.1-2009 ExtWall Mass ClimateZone 3, !- Name
  ,                                       !- Surface Rendering Name
  {02b094e2-a720-46ba-aca0-720a2cfb1d6f}, !- Layer 1
  {1391237d-1fe5-4c34-aa12-ba8428e14619}, !- Layer 2
  {4641ad4c-239f-471e-8e36-b6d489cfc973}, !- Layer 3
  {53e84ce0-7775-41c1-9828-53dc797d1b40}; !- Layer 4

OS:StandardsInformation:Construction,
  {c78069b9-bd7f-4b5b-900a-21a311a16617}, !- Handle
  {3dde6662-9662-4de7-a136-a9c1f73c109a}, !- Construction Name
  ExteriorWall,                           !- Intended Surface Type
  Mass;                                   !- Standards Construction Type

OS:Material,
  {4641ad4c-239f-471e-8e36-b6d489cfc973}, !- Handle
  Wall Insulation [36],                   !- Name
  MediumRough,                            !- Roughness
  0.0565999999999999,                     !- Thickness {m}
  0.0432,                                 !- Conductivity {W/m-K}
  91,                                     !- Density {kg/m3}
  836.999999999999,                       !- Specific Heat {J/kg-K}
  0.9,                                    !- Thermal Absorptance
  0.5,                                    !- Solar Absorptance
  0.5;                                    !- Visible Absorptance

OS:Construction,
  {b349faa6-07a7-4bd3-8b91-5236d3e7d188}, !- Handle
  ASHRAE 189.1-2009 ExtWall Mass ClimateZone 4, !- Name
  ,                                       !- Surface Rendering Name
  {02b094e2-a720-46ba-aca0-720a2cfb1d6f}, !- Layer 1
  {1391237d-1fe5-4c34-aa12-ba8428e14619}, !- Layer 2
  {dcca05c7-f24d-436e-9d80-efef3eef61a9}, !- Layer 3
  {53e84ce0-7775-41c1-9828-53dc797d1b40}; !- Layer 4

OS:StandardsInformation:Construction,
  {ec9ced42-8c82-48aa-ba6d-27948abb1b33}, !- Handle
  {b349faa6-07a7-4bd3-8b91-5236d3e7d188}, !- Construction Name
  ExteriorWall,                           !- Intended Surface Type
  Mass;                                   !- Standards Construction Type

OS:Material,
  {dcca05c7-f24d-436e-9d80-efef3eef61a9}, !- Handle
  Wall Insulation [37],                   !- Name
  MediumRough,                            !- Roughness
  0.0680999999999999,                     !- Thickness {m}
  0.0432,                                 !- Conductivity {W/m-K}
  91,                                     !- Density {kg/m3}
  836.999999999999,                       !- Specific Heat {J/kg-K}
  0.9,                                    !- Thermal Absorptance
  0.5,                                    !- Solar Absorptance
  0.5;                                    !- Visible Absorptance

OS:Construction,
  {0f9ba166-af81-4d7b-8376-fc9f0bf17936}, !- Handle
  ASHRAE 189.1-2009 ExtWall Mass ClimateZone 5, !- Name
  ,                                       !- Surface Rendering Name
  {02b094e2-a720-46ba-aca0-720a2cfb1d6f}, !- Layer 1
  {1391237d-1fe5-4c34-aa12-ba8428e14619}, !- Layer 2
  {78ab79f4-ceaa-4309-ba3c-33df521d3857}, !- Layer 3
  {53e84ce0-7775-41c1-9828-53dc797d1b40}; !- Layer 4

OS:StandardsInformation:Construction,
  {5cdb0afb-6b76-4013-ba27-933f5e843d20}, !- Handle
  {0f9ba166-af81-4d7b-8376-fc9f0bf17936}, !- Construction Name
  ExteriorWall,                           !- Intended Surface Type
  Mass;                                   !- Standards Construction Type

OS:Material,
  {78ab79f4-ceaa-4309-ba3c-33df521d3857}, !- Handle
  Wall Insulation [40],                   !- Name
  MediumRough,                            !- Roughness
  0.0793999999999999,                     !- Thickness {m}
  0.0432,                                 !- Conductivity {W/m-K}
  91,                                     !- Density {kg/m3}
  836.999999999999,                       !- Specific Heat {J/kg-K}
  0.9,                                    !- Thermal Absorptance
  0.5,                                    !- Solar Absorptance
  0.5;                                    !- Visible Absorptance

OS:Construction,
  {c2c62e2d-7a6e-48e1-bb4b-fd17715a2cb5}, !- Handle
  ASHRAE 189.1-2009 ExtWall Mass ClimateZone 6, !- Name
  ,                                       !- Surface Rendering Name
  {02b094e2-a720-46ba-aca0-720a2cfb1d6f}, !- Layer 1
  {1391237d-1fe5-4c34-aa12-ba8428e14619}, !- Layer 2
  {aa916fca-946e-4f71-bf37-7597dfd4cb18}, !- Layer 3
  {53e84ce0-7775-41c1-9828-53dc797d1b40}; !- Layer 4

OS:StandardsInformation:Construction,
  {4e0abf5f-195c-4325-9ccd-effee81ae9b8}, !- Handle
  {c2c62e2d-7a6e-48e1-bb4b-fd17715a2cb5}, !- Construction Name
  ExteriorWall,                           !- Intended Surface Type
  Mass;                                   !- Standards Construction Type

OS:Material,
  {aa916fca-946e-4f71-bf37-7597dfd4cb18}, !- Handle
  Wall Insulation [42],                   !- Name
  MediumRough,                            !- Roughness
  0.0913999999999999,                     !- Thickness {m}
  0.0432,                                 !- Conductivity {W/m-K}
  91,                                     !- Density {kg/m3}
  836.999999999999,                       !- Specific Heat {J/kg-K}
  0.9,                                    !- Thermal Absorptance
  0.5,                                    !- Solar Absorptance
  0.5;                                    !- Visible Absorptance

OS:Construction,
  {8630dcb4-e824-4751-86bd-3d474cd7c11c}, !- Handle
  ASHRAE 189.1-2009 ExtWall Mass ClimateZone 7-8, !- Name
  ,                                       !- Surface Rendering Name
  {02b094e2-a720-46ba-aca0-720a2cfb1d6f}, !- Layer 1
  {1391237d-1fe5-4c34-aa12-ba8428e14619}, !- Layer 2
  {0f178d88-a826-4ab0-8310-b7eaf70460b6}, !- Layer 3
  {53e84ce0-7775-41c1-9828-53dc797d1b40}; !- Layer 4

OS:StandardsInformation:Construction,
  {c2c662fa-e324-48e0-baf3-95f0668f8aba}, !- Handle
  {8630dcb4-e824-4751-86bd-3d474cd7c11c}, !- Construction Name
  ExteriorWall,                           !- Intended Surface Type
  Mass;                                   !- Standards Construction Type

OS:Material,
  {0f178d88-a826-4ab0-8310-b7eaf70460b6}, !- Handle
  Wall Insulation [44],                   !- Name
  MediumRough,                            !- Roughness
  0.1104,                                 !- Thickness {m}
  0.0432,                                 !- Conductivity {W/m-K}
  91,                                     !- Density {kg/m3}
  836.999999999999,                       !- Specific Heat {J/kg-K}
  0.9,                                    !- Thermal Absorptance
  0.5,                                    !- Solar Absorptance
  0.5;                                    !- Visible Absorptance

OS:Construction,
  {c0b277d6-c369-4c4f-b818-c5e3d8b2ddcf}, !- Handle
  ASHRAE 189.1-2009 ExtWall Mass ClimateZone alt-res 1, !- Name
  ,                                       !- Surface Rendering Name
  {02b094e2-a720-46ba-aca0-720a2cfb1d6f}, !- Layer 1
  {1391237d-1fe5-4c34-aa12-ba8428e14619}, !- Layer 2
  {a4b3020d-df7a-499b-b239-66357cd84c51}, !- Layer 3
  {53e84ce0-7775-41c1-9828-53dc797d1b40}; !- Layer 4

OS:StandardsInformation:Construction,
  {33553e4b-0b64-42e5-8db9-5a5413b11427}, !- Handle
  {c0b277d6-c369-4c4f-b818-c5e3d8b2ddcf}, !- Construction Name
  ExteriorWall,                           !- Intended Surface Type
  Mass;                                   !- Standards Construction Type

OS:Construction,
  {a0a6893b-3d12-4b6e-9da3-f12c73d065ba}, !- Handle
  ASHRAE 189.1-2009 ExtWall Mass ClimateZone alt-res 2, !- Name
  ,                                       !- Surface Rendering Name
  {02b094e2-a720-46ba-aca0-720a2cfb1d6f}, !- Layer 1
  {1391237d-1fe5-4c34-aa12-ba8428e14619}, !- Layer 2
  {4641ad4c-239f-471e-8e36-b6d489cfc973}, !- Layer 3
  {53e84ce0-7775-41c1-9828-53dc797d1b40}; !- Layer 4

OS:StandardsInformation:Construction,
  {2507076e-4d70-4e95-9496-ca2ee0a8f36d}, !- Handle
  {a0a6893b-3d12-4b6e-9da3-f12c73d065ba}, !- Construction Name
  ExteriorWall,                           !- Intended Surface Type
  Mass;                                   !- Standards Construction Type

OS:Construction,
  {c4bfbb61-f962-48a0-b078-79f1ee2c7dc3}, !- Handle
  ASHRAE 189.1-2009 ExtWall Mass ClimateZone alt-res 3, !- Name
  ,                                       !- Surface Rendering Name
  {02b094e2-a720-46ba-aca0-720a2cfb1d6f}, !- Layer 1
  {1391237d-1fe5-4c34-aa12-ba8428e14619}, !- Layer 2
  {dcca05c7-f24d-436e-9d80-efef3eef61a9}, !- Layer 3
  {53e84ce0-7775-41c1-9828-53dc797d1b40}; !- Layer 4

OS:StandardsInformation:Construction,
  {3ef295fb-dba9-423e-893e-356fcbaddc5d}, !- Handle
  {c4bfbb61-f962-48a0-b078-79f1ee2c7dc3}, !- Construction Name
  ExteriorWall,                           !- Intended Surface Type
  Mass;                                   !- Standards Construction Type

OS:Construction,
  {2c174709-a9ac-422d-80f0-dd74d39c52cd}, !- Handle
  ASHRAE 189.1-2009 ExtWall Mass ClimateZone alt-res 4, !- Name
  ,                                       !- Surface Rendering Name
  {02b094e2-a720-46ba-aca0-720a2cfb1d6f}, !- Layer 1
  {1391237d-1fe5-4c34-aa12-ba8428e14619}, !- Layer 2
  {78ab79f4-ceaa-4309-ba3c-33df521d3857}, !- Layer 3
  {53e84ce0-7775-41c1-9828-53dc797d1b40}; !- Layer 4

OS:StandardsInformation:Construction,
  {e98ffaae-b70c-462e-b714-558e7ca4cae0}, !- Handle
  {2c174709-a9ac-422d-80f0-dd74d39c52cd}, !- Construction Name
  ExteriorWall,                           !- Intended Surface Type
  Mass;                                   !- Standards Construction Type

OS:Construction,
  {c45e9d0e-10a8-4c3f-bb30-35f0ecd8f1cb}, !- Handle
  ASHRAE 189.1-2009 ExtWall Mass ClimateZone alt-res 5, !- Name
  ,                                       !- Surface Rendering Name
  {02b094e2-a720-46ba-aca0-720a2cfb1d6f}, !- Layer 1
  {1391237d-1fe5-4c34-aa12-ba8428e14619}, !- Layer 2
  {aa916fca-946e-4f71-bf37-7597dfd4cb18}, !- Layer 3
  {53e84ce0-7775-41c1-9828-53dc797d1b40}; !- Layer 4

OS:StandardsInformation:Construction,
  {5b1d90da-85f7-4ad2-af03-4f4b168a6150}, !- Handle
  {c45e9d0e-10a8-4c3f-bb30-35f0ecd8f1cb}, !- Construction Name
  ExteriorWall,                           !- Intended Surface Type
  Mass;                                   !- Standards Construction Type

OS:Construction,
  {5c1dc054-c7cf-44d8-b28d-0dbccdcbc116}, !- Handle
  ASHRAE 189.1-2009 ExtWall Mass ClimateZone alt-res 6, !- Name
  ,                                       !- Surface Rendering Name
  {02b094e2-a720-46ba-aca0-720a2cfb1d6f}, !- Layer 1
  {1391237d-1fe5-4c34-aa12-ba8428e14619}, !- Layer 2
  {0f178d88-a826-4ab0-8310-b7eaf70460b6}, !- Layer 3
  {53e84ce0-7775-41c1-9828-53dc797d1b40}; !- Layer 4

OS:StandardsInformation:Construction,
  {7405ca8c-b515-4c2b-a0a2-347e9532f5c9}, !- Handle
  {5c1dc054-c7cf-44d8-b28d-0dbccdcbc116}, !- Construction Name
  ExteriorWall,                           !- Intended Surface Type
  Mass;                                   !- Standards Construction Type

OS:Construction,
  {2a8f93a8-a45c-4c76-8373-b166e676eca8}, !- Handle
  ASHRAE 189.1-2009 ExtWall Mass ClimateZone alt-res 7, !- Name
  ,                                       !- Surface Rendering Name
  {02b094e2-a720-46ba-aca0-720a2cfb1d6f}, !- Layer 1
  {1391237d-1fe5-4c34-aa12-ba8428e14619}, !- Layer 2
  {0f178d88-a826-4ab0-8310-b7eaf70460b6}, !- Layer 3
  {53e84ce0-7775-41c1-9828-53dc797d1b40}; !- Layer 4

OS:StandardsInformation:Construction,
  {280ba453-0050-4a30-899b-c237464e82cf}, !- Handle
  {2a8f93a8-a45c-4c76-8373-b166e676eca8}, !- Construction Name
  ExteriorWall,                           !- Intended Surface Type