
OS:Version,
  {eab59063-7e96-4750-8c89-2a5f74306a6f}, !- Handle
  1.3.3;                                  !- Version Identifier

OS:Construction,
  {8fa28e6e-b5a1-4a98-a9b9-8ba9a3b0d6c4}, !- Handle
  ASHRAE 189.1-2009 AtticFloor ClimateZone 1-8, !- Name
  ,                                       !- Surface Rendering Name
  {2f138f80-95a9-449a-bce6-9e9bb6056dde}, !- Layer 1
  {1053774f-8e67-4b8e-89a5-e8452ae859be}, !- Layer 2
  {2f138f80-95a9-449a-bce6-9e9bb6056dde}; !- Layer 3

OS:StandardsInformation:Construction,
  {153c6709-09f6-40ad-8ee4-c2d49d5130fe}, !- Handle
  {8fa28e6e-b5a1-4a98-a9b9-8ba9a3b0d6c4}, !- Construction Name
  AtticFloor,                             !- Intended Surface Type
  WoodFramed;                             !- Standards Construction Type

OS:Material,
  {2f138f80-95a9-449a-bce6-9e9bb6056dde}, !- Handle
  1/2IN Gypsum,                           !- Name
  Smooth,                                 !- Roughness
  0.0127,                                 !- Thickness {m}
  0.16,                                   !- Conductivity {W/m-K}
  784.9,                                  !- Density {kg/m3}
  830.000000000001,                       !- Specific Heat {J/kg-K}
  0.9,                                    !- Thermal Absorptance
  0.4,                                    !- Solar Absorptance
  0.4;                                    !- Visible Absorptance

OS:Material,
  {1053774f-8e67-4b8e-89a5-e8452ae859be}, !- Handle
  AtticFloor Insulation,                  !- Name
  MediumRough,                            !- Roughness
  0.2379,                                 !- Thickness {m}
  0.049,                                  !- Conductivity {W/m-K}
  265,                                    !- Density {kg/m3}
  836.800000000001,                       !- Specific Heat {J/kg-K}
  0.9,                                    !- Thermal Absorptance
  0.7,                                    !- Solar Absorptance
  0.7;                                    !- Visible Absorptance

OS:Construction,
  {1165c093-0067-4f62-a2ae-63c2b52d4bd0}, !- Handle
  ASHRAE 189.1-2009 ExtRoof IEAD ClimateZone 1, !- Name
  ,                                       !- Surface Rendering Name
  {e07afc78-b6c3-4ba2-a6cc-e4e5f96615ab}, !- Layer 1
  {4a0f66b3-fcd3-4503-ab62-cf33b640ea87}, !- Layer 2
  {9e89a298-2436-4c23-bd6b-ce3619890927}; !- Layer 3

OS:StandardsInformation:Construction,
  {8b7e6787-2714-4c65-b32b-9c0d90a976ad}, !- Handle
  {1165c093-0067-4f62-a2ae-63c2b52d4bd0}, !- Construction Name
  ExteriorRoof,                           !- Intended Surface Type
  IEAD;                                   !- Standards Construction Type

OS:Material,
  {e07afc78-b6c3-4ba2-a6cc-e4e5f96615ab}, !- Handle
  Roof Membrane,                          !- Name
  VeryRough,                              !- Roughness
  0.0095,                                 !- Thickness {m}
  0.16,                                   !- Conductivity {W/m-K}
  1121.29,                                !- Density {kg/m3}
  1460,                                   !- Specific Heat {J/kg-K}
  0.9,                                    !- Thermal Absorptance
  0.7,                                    !- Solar Absorptance
  0.7;                                    !- Visible Absorptance

OS:Material,
  {4a0f66b3-fcd3-4503-ab62-cf33b640ea87}, !- Handle
  Roof Insulation [18],                   !- Name
  MediumRough,                            !- Roughness
  0.1693,                                 !- Thickness {m}
  0.049,                                  !- Conductivity {W/m-K}
  265,                                    !- Density {kg/m3}
  836.800000000001,                       !- Specific Heat {J/kg-K}
  0.9,                                    !- Thermal Absorptance
  0.7,                                    !- Solar Absorptance
  0.7;                                    !- Visible Absorptance

OS:Material,
  {9e89a298-2436-4c23-bd6b-ce3619890927}, !- Handle
  Metal Decking,                          !- Name
  MediumSmooth,                           !- Roughness
  0.0015,                                 !- Thickness {m}
  45.006,                                 !- Conductivity {W/m-K}
  7680,                                   !- Density {kg/m3}
  418.4,                                  !- Specific Heat {J/kg-K}
  0.9,                                    !- Thermal Absorptance
  0.6,                                    !- Solar Absorptance
  0.6;                                    !- Visible Absorptance

OS:Construction,
  {1fcff81d-b695-466c-a92f-7bae0f9d5df6}, !- Handle
  ASHRAE 189.1-2009 ExtRoof IEAD ClimateZone 2-5, !- Name
  ,                                       !- Surface Rendering Name
  {e07afc78-b6c3-4ba2-a6cc-e4e5f96615ab}, !- Layer 1
  {5ac9a5e9-85b1-4142-a483-dfa7f54056a0}, !- Layer 2
  {9e89a298-2436-4c23-bd6b-ce3619890927}; !- Layer 3

OS:StandardsInformation:Construction,
  {a028a241-3c20-45be-83ab-6d77d6a379a4}, !- Handle
  {1fcff81d-b695-466c-a92f-7bae0f9d5df6}, !- Construction Name
  ExteriorRoof,                           !- Intended Surface Type
  IEAD;                                   !- Standards Construction Type

OS:Material,
  {5ac9a5e9-85b1-4142-a483-dfa7f54056a0}, !- Handle
  Roof Insulation [21],                   !- Name
  MediumRough,                            !- Roughness
  0.2105,                                 !- Thickness {m}
  0.049,                                  !- Conductivity {W/m-K}
  265,                                    !- Density {kg/m3}
  836.800000000001,                       !- Specific Heat {J/kg-K}
  0.9,                                    !- Thermal Absorptance
  0.7,                                    !- Solar Absorptance
  0.7;                                    !- Visible Absorptance

OS:Construction,
  {89f1ad94-8326-4719-850b-c719d626bd29}, !- Handle
  ASHRAE 189.1-2009 ExtRoof IEAD ClimateZone 6, !- Name
  ,                                       !- Surface Rendering Name
  {e07afc78-b6c3-4ba2-a6cc-e4e5f96615ab}, !- Layer 1
  {ddd4c6e7-0914-4b97-b4dc-cff4b6fbff01}, !- Layer 2
  {9e89a298-2436-4c23-bd6b-ce3619890927}; !- Layer 3

OS:StandardsInformation:Construction,
  {5f9a6f8c-94cd-47ba-9981-6d38cd17d7a8}, !- Handle
  {89f1ad94-8326-4719-850b-c719d626bd29}, !- Construction Name
  ExteriorRoof,                           !- Intended Surface Type
  IEAD;                                   !- Standards Construction Type

OS:Material,
  {ddd4c6e7-0914-4b97-b4dc-cff4b6fbff01}, !- Handle
  Roof Insulation [24],                   !- Name
  MediumRough,                            !- Roughness
  0.260100000000001,                      !- Thickness {m}
  0.049,                                  !- Conductivity {W/m-K}
  265,                                    !- Density {kg/m3}
  836.800000000001,                       !- Specific Heat {J/kg-K}
  0.9,                                    !- Thermal Absorptance
  0.7,                                    !- Solar Absorptance
  0.7;                                    !- Visible Absorptance

OS:Construction,
  {5736b647-9e6c-4183-ad37-fe4e1744c7aa}, !- Handle
  ASHRAE 189.1-2009 ExtRoof IEAD ClimateZone 7-8, !- Name
  ,                                       !- Surface Rendering Name
  {e07afc78-b6c3-4ba2-a6cc-e4e5f96615ab}, !- Layer 1
  {5c268ec1-ebd7-4c19-b41b-2b426c451d3d}, !- Layer 2
  {9e89a298-2436-4c23-bd6b-ce3619890927}; !- Layer 3

OS:StandardsInformation:Construction,
  {ba8685a9-a266-47d4-95f9-f06e64874192}, !- Handle
  {5736b647-9e6c-4183-ad37-fe4e1744c7aa}, !- Construction Name
  ExteriorRoof,                           !- Intended Surface Type
  IEAD;                                   !- Standards Construction Type

OS:Material,
  {5c268ec1-ebd7-4c19-b41b-2b426c451d3d}, !- Handle
  Roof Insulation [26],                   !- Name
  MediumRough,                            !- Roughness
  0.2941,                                 !- Thickness {m}
  0.049,                                  !- Conductivity {W/m-K}
  265,                                    !- Density {kg/m3}
  836.800000000001,                       !- Specific Heat {J/kg-K}
  0.9,                                    !- Thermal Absorptance
  0.7,                                    !- Solar Absorptance
  0.7;                                    !- Visible Absorptance

OS:Construction,
  {5616a1b2-0524-4c7e-8f4b-856d28df1345}, !- Handle
  ASHRAE 189.1-2009 ExtRoof Metal ClimateZone 1, !- Name
  ,                                       !- Surface Rendering Name
  {27437435-857c-4733-994b-c2195db663a1}, !- Layer 1
  {e3940ded-a848-4238-a974-c366acf7962b}, !- Layer 2
  {9e89a298-2436-4c23-bd6b-ce3619890927}; !- Layer 3

OS:StandardsInformation:Construction,
  {99f5695d-8b60-4668-b6f6-4b68244064ae}, !- Handle
  {5616a1b2-0524-4c7e-8f4b-856d28df1345}, !- Construction Name
  ExteriorRoof,                           !- Intended Surface Type
  Metal;                                  !- Standards Construction Type

OS:Material,
  {27437435-857c-4733-994b-c2195db663a1}, !- Handle
  Metal Roofing,                          !- Name
  MediumSmooth,                           !- Roughness
  0.0015,                                 !- Thickness {m}
  45.006,                                 !- Conductivity {W/m-K}
  7680,                                   !- Density {kg/m3}
  418.4,                                  !- Specific Heat {J/kg-K}
  0.9,                                    !- Thermal Absorptance
  0.6,                                    !- Solar Absorptance
  0.6;                                    !- Visible Absorptance

OS:Material,
  {e3940ded-a848-4238-a974-c366acf7962b}, !- Handle
  Roof Insulation [19],                   !- Name
  MediumRough,                            !- Roughness
  0.1868,                                 !- Thickness {m}
  0.049,                                  !- Conductivity {W/m-K}
  265,                                    !- Density {kg/m3}
  836.800000000001,                       !- Specific Heat {J/kg-K}
  0.9,                                    !- Thermal Absorptance
  0.7,                                    !- Solar Absorptance
  0.7;                                    !- Visible Absorptance

OS:Construction,
  {4d303dce-a53c-4ffb-bbfb-db5682f52059}, !- Handle
  ASHRAE 189.1-2009 ExtRoof Metal ClimateZone 2-5, !- Name
  ,                                       !- Surface Rendering Name
  {27437435-857c-4733-994b-c2195db663a1}, !- Layer 1
  {cd01b3cc-eda8-4f9d-8236-714139382413}, !- Layer 2
  {9e89a298-2436-4c23-bd6b-ce3619890927}; !- Layer 3

OS:StandardsInformation:Construction,
  {a2a5b75d-fb07-48e6-9987-7b5094af88b7}, !- Handle
  {4d303dce-a53c-4ffb-bbfb-db5682f52059}, !- Construction Name
  ExteriorRoof,                           !- Intended Surface Type
  Metal;                                  !- Standards Construction Type

OS:Material,
  {cd01b3cc-eda8-4f9d-8236-714139382413}, !- Handle
  Roof Insulation [22],                   !- Name
  MediumRough,                            !- Roughness
  0.2358,                                 !- Thickness {m}
  0.049,                                  !- Conductivity {W/m-K}
  265,                                    !- Density {kg/m3}
  836.800000000001,                       !- Specific Heat {J/kg-K}
  0.9,                                    !- Thermal Absorptance
  0.7,                                    !- Solar Absorptance
  0.7;                                    !- Visible Absorptance

OS:Construction,
  {a90682ac-a2d5-49b3-89e9-335ada2feaf5}, !- Handle
  ASHRAE 189.1-2009 ExtRoof Metal ClimateZone 6, !- Name
  ,                                       !- Surface Rendering Name
  {27437435-857c-4733-994b-c2195db663a1}, !- Layer 1
  {0b2b4215-fe2c-4c2e-8c94-def89b2d7ef6}, !- Layer 2
  {9e89a298-2436-4c23-bd6b-ce3619890927}; !- Layer 3

OS:StandardsInformation:Construction,
  {5cbdeeb8-1ede-4fe3-98c6-9b285119a45e}, !- Handle
  {a90682ac-a2d5-49b3-89e9-335ada2feaf5}, !- Construction Name
  ExteriorRoof,                           !- Intended Surface Type
  Metal;                                  !- Standards Construction Type

OS:Material,
  {0b2b4215-fe2c-4c2e-8c94-def89b2d7ef6}, !- Handle
  Roof Insulation [25],                   !- Name
  MediumRough,                            !- Roughness
  0.263,                                  !- Thickness {m}
  0.049,                                  !- Conductivity {W/m-K}
  265,                                    !- Density {kg/m3}
  836.800000000001,                       !- Specific Heat {J/kg-K}
  0.9,                                    !- Thermal Absorptance
  0.7,                                    !- Solar Absorptance
  0.7;                                    !- Visible Absorptance

OS:Construction,
  {881be91b-192f-4f16-ba06-87a280863bea}, !- Handle
  ASHRAE 189.1-2009 ExtRoof Metal ClimateZone 7-8, !- Name
  ,                                       !- Surface Rendering Name
  {27437435-857c-4733-994b-c2195db663a1}, !- Layer 1
  {c36c6815-1ab9-4b20-b910-dc922c5fd68f}, !- Layer 2
  {9e89a298-2436-4c23-bd6b-ce3619890927}; !- Layer 3

OS:StandardsInformation:Construction,
  {8a429ae8-c57b-406d-bd8b-06e7fc7c23a5}, !- Handle
  {881be91b-192f-4f16-ba06-87a280863bea}, !- Construction Name
  ExteriorRoof,                           !- Intended Surface Type
  Metal;                                  !- Standards Construction Type

OS:Material,
  {c36c6815-1ab9-4b20-b910-dc922c5fd68f}, !- Handle
  Roof Insulation [27],                   !- Name
  MediumRough,                            !- Roughness
  0.297000000000001,                      !- Thickness {m}
  0.049,                                  !- Conductivity {W/m-K}
  265,                                    !- Density {kg/m3}
  836.800000000001,                       !- Specific Heat {J/kg-K}
  0.9,                                    !- Thermal Absorptance
  0.7,                                    !- Solar Absorptance
  0.7;                                    !- Visible Absorptance

OS:Construction,
  {5829d45d-8b6e-49ce-a76a-a294f9eb9bad}, !- Handle
  ASHRAE 189.1-2009 ExtWall Mass ClimateZone 1, !- Name
  ,                                       !- Surface Rendering Name
  {903b4fc1-a0d2-4f7a-9a94-949bd391e68b}, !- Layer 1
  {b549451d-473e-4019-a357-9a4ec28fcd4e}, !- Layer 2
  {f907358f-9522-456d-81c4-b0ca1c0f0e83}, !- Layer 3
  {2f138f80-95a9-449a-bce6-9e9bb6056dde}; !- Layer 4

OS:StandardsInformation:Construction,
  {677c00af-c360-40e6-b178-b8f0ddd18598}, !- Handle
  {5829d45d-8b6e-49ce-a76a-a294f9eb9bad}, !- Construction Name
  ExteriorWall,                           !- Intended Surface Type
  Mass;                                   !- Standards Construction Type

OS:Material,
  {903b4fc1-a0d2-4f7a-9a94-949bd391e68b}, !- Handle
  1IN Stucco,                             !- Name
  Smooth,                                 !- Roughness
  0.0253,                                 !- Thickness {m}
  0.691799999999999,                      !- Conductivity {W/m-K}
  1858,                                   !- Density {kg/m3}
  836.999999999999,                       !- Specific Heat {J/kg-K}
  0.9,                                    !- Thermal Absorptance
  0.92,                                   !- Solar Absorptance
  0.92;                                   !- Visible Absorptance

OS:Material,
  {b549451d-473e-4019-a357-9a4ec28fcd4e}, !- Handle
  8IN Concrete HW,                        !- Name
  MediumRough,                            !- Roughness
  0.2033,                                 !- Thickness {m}
  1.72959999999999,                       !- Conductivity {W/m-K}
  2242.99999999999,                       !- Density {kg/m3}
  836.999999999999,                       !- Specific Heat {J/kg-K}
  0.9,                                    !- Thermal Absorptance
  0.65,                                   !- Solar Absorptance
  0.65;                                   !- Visible Absorptance

OS:Material,
  {f907358f-9522-456d-81c4-b0ca1c0f0e83}, !- Handle
  Wall Insulation [31],                   !- Name
  MediumRough,                            !- Roughness
  0.0337000000000001,                     !- Thickness {m}
  0.0432,                                 !- Conductivity {W/m-K}
  91,                                     !- Density {kg/m3}
  836.999999999999,                       !- Specific Heat {J/kg-K}
  0.9,                                    !- Thermal Absorptance
  0.5,                                    !- Solar Absorptance
  0.5;                                    !- Visible Absorptance

OS:Construction,
  {060fd566-977c-461b-be3c-ad4923d3d4c8}, !- Handle
  ASHRAE 189.1-2009 ExtWall Mass ClimateZone 2, !- Name
  ,                                       !- Surface Rendering Name
  {903b4fc1-a0d2-4f7a-9a94-949bd391e68b}, !- Layer 1
  {b549451d-473e-4019-a357-9a4ec28fcd4e}, !- Layer 2
  {75878728-3180-49ff-9f0d-b474d9dab4aa}, !- Layer 3
  {2f138f80-95a9-449a-bce6-9e9bb6056dde}; !- Layer 4

OS:StandardsInformation:Construction,
  {3ad01c23-78b0-4bc9-bc69-6cd06adee903}, !- Handle
  {060fd566-977c-461b-be3c-ad4923d3d4c8}, !- Construction Name
  ExteriorWall,                           !- Intended Surface Type
  Mass;                                   !- Standards Construction Type

OS:Material,
  {75878728-3180-49ff-9f0d-b474d9dab4aa}, !- Handle
  Wall Insulation [35],                   !- Name
  MediumRough,                            !- Roughness
  0.0452,                                 !- Thickness {m}
  0.0432,                                 !- Conductivity {W/m-K}
  91,                                     !- Density {kg/m3}
  836.999999999999,                       !- Specific Heat {J/kg-K}
  0.9,                                    !- Thermal Absorptance
  0.5,                                    !- Solar Absorptance
  0.5;                                    !- Visible Absorptance

OS:Construction,
  {8221b1a0-fe9a-4a3e-8ab7-beedee99ce08}, !- Handle
  ASHRAE 189.1-2009 ExtWall Mass ClimateZone 3, !- Name
  ,                                       !- Surface Rendering Name
  {903b4fc1-a0d2-4f7a-9a94-949bd391e68b}, !- Layer 1
  {b549451d-473e-4019-a357-9a4ec28fcd4e}, !- Layer 2
  {72ff633a-e21f-466b-8106-96e81e2382c7}, !- Layer 3
  {2f138f80-95a9-449a-bce6-9e9bb6056dde}; !- Layer 4

OS:StandardsInformation:Construction,
  {b1d71917-ab99-40b5-adc3-24f114543f4a}, !- Handle
  {8221b1a0-fe9a-4a3e-8ab7-beedee99ce08}, !- Construction Name
  ExteriorWall,                           !- Intended Surface Type
  Mass;                                   !- Standards Construction Type

OS:Material,
  {72ff633a-e21f-466b-8106-96e81e2382c7}, !- Handle
  Wall Insulation [36],                   !- Name
  MediumRough,                            !- Roughness
  0.0565999999999999,                     !- Thickness {m}
  0.0432,                                 !- Conductivity {W/m-K}
  91,                                     !- Density {kg/m3}
  836.999999999999,                       !- Specific Heat {J/kg-K}
  0.9,                                    !- Thermal Absorptance
  0.5,                                    !- Solar Absorptance
  0.5;                                    !- Visible Absorptance

OS:Construction,
  {671fc9da-2658-4913-8b7b-dad70783c955}, !- Handle
  ASHRAE 189.1-2009 ExtWall Mass ClimateZone 4, !- Name
  ,                                       !- Surface Rendering Name
  {903b4fc1-a0d2-4f7a-9a94-949bd391e68b}, !- Layer 1
  {b549451d-473e-4019-a357-9a4ec28fcd4e}, !- Layer 2
  {04162eb7-2455-41a5-a95f-b81c7c5659e2}, !- Layer 3
  {2f138f80-95a9-449a-bce6-9e9bb6056dde}; !- Layer 4

OS:StandardsInformation:Construction,
  {0ac11086-a62b-44b0-9afd-1e09cbf5fc26}, !- Handle
  {671fc9da-2658-4913-8b7b-dad70783c955}, !- Construction Name
  ExteriorWall,                           !- Intended Surface Type
  Mass;                                   !- Standards Construction Type

OS:Material,
  {04162eb7-2455-41a5-a95f-b81c7c5659e2}, !- Handle
  Wall Insulation [37],                   !- Name
  MediumRough,                            !- Roughness
  0.0680999999999999,                     !- Thickness {m}
  0.0432,                                 !- Conductivity {W/m-K}
  91,                                     !- Density {kg/m3}
  836.999999999999,                       !- Specific Heat {J/kg-K}
  0.9,                                    !- Thermal Absorptance
  0.5,                                    !- Solar Absorptance
  0.5;                                    !- Visible Absorptance

OS:Construction,
  {d304cc3a-1435-4382-89db-f15d635e0f2d}, !- Handle
  ASHRAE 189.1-2009 ExtWall Mass ClimateZone 5, !- Name
  ,                                       !- Surface Rendering Name
  {903b4fc1-a0d2-4f7a-9a94-949bd391e68b}, !- Layer 1
  {b549451d-473e-4019-a357-9a4ec28fcd4e}, !- Layer 2
  {07dda3a5-3a25-45e9-a297-cabc92ebbb46}, !- Layer 3
  {2f138f80-95a9-449a-bce6-9e9bb6056dde}; !- Layer 4

OS:StandardsInformation:Construction,
  {34470e67-945b-4c82-a315-d0223414bd7d}, !- Handle
  {d304cc3a-1435-4382-89db-f15d635e0f2d}, !- Construction Name
  ExteriorWall,                           !- Intended Surface Type
  Mass;                                   !- Standards Construction Type

OS:Material,
  {07dda3a5-3a25-45e9-a297-cabc92ebbb46}, !- Handle
  Wall Insulation [40],                   !- Name
  MediumRough,                            !- Roughness
  0.0793999999999999,                     !- Thickness {m}
  0.0432,                                 !- Conductivity {W/m-K}
  91,                                     !- Density {kg/m3}
  836.999999999999,                       !- Specific Heat {J/kg-K}
  0.9,                                    !- Thermal Absorptance
  0.5,                                    !- Solar Absorptance
  0.5;                                    !- Visible Absorptance

OS:Construction,
  {6295d8b4-c9c8-4fba-9274-1f9c87402ef5}, !- Handle
  ASHRAE 189.1-2009 ExtWall Mass ClimateZone 6, !- Name
  ,                                       !- Surface Rendering Name
  {903b4fc1-a0d2-4f7a-9a94-949bd391e68b}, !- Layer 1
  {b549451d-473e-4019-a357-9a4ec28fcd4e}, !- Layer 2
  {ee41ca98-241e-4d1f-a4fe-1cd08668c99e}, !- Layer 3
  {2f138f80-95a9-449a-bce6-9e9bb6056dde}; !- Layer 4

OS:StandardsInformation:Construction,
  {b63e7649-9948-4d7d-989c-7086ea4350a6}, !- Handle
  {6295d8b4-c9c8-4fba-9274-1f9c87402ef5}, !- Construction Name
  ExteriorWall,                           !- Intended Surface Type
  Mass;                                   !- Standards Construction Type

OS:Material,
  {ee41ca98-241e-4d1f-a4fe-1cd08668c99e}, !- Handle
  Wall Insulation [42],                   !- Name
  MediumRough,                            !- Roughness
  0.0913999999999999,                     !- Thickness {m}
  0.0432,                                 !- Conductivity {W/m-K}
  91,                                     !- Density {kg/m3}
  836.999999999999,                       !- Specific Heat {J/kg-K}
  0.9,                                    !- Thermal Absorptance
  0.5,                                    !- Solar Absorptance
  0.5;                                    !- Visible Absorptance

OS:Construction,
  {85073103-47cc-4f01-a27e-63c0081ee6eb}, !- Handle
  ASHRAE 189.1-2009 ExtWall Mass ClimateZone 7-8, !- Name
  ,                                       !- Surface Rendering Name
  {903b4fc1-a0d2-4f7a-9a94-949bd391e68b}, !- Layer 1
  {b549451d-473e-4019-a357-9a4ec28fcd4e}, !- Layer 2
  {65a0476b-dbee-4bf2-b98e-0dff4f237a2f}, !- Layer 3
  {2f138f80-95a9-449a-bce6-9e9bb6056dde}; !- Layer 4

OS:StandardsInformation:Construction,
  {f36f0614-2d72-41ae-afa2-93d9cfffd635}, !- Handle
  {85073103-47cc-4f01-a27e-63c0081ee6eb}, !- Construction Name
  ExteriorWall,                           !- Intended Surface Type
  Mass;                                   !- Standards Construction Type

OS:Material,
  {65a0476b-dbee-4bf2-b98e-0dff4f237a2f}, !- Handle
  Wall Insulation [44],                   !- Name
  MediumRough,                            !- Roughness
  0.1104,                                 !- Thickness {m}
  0.0432,                                 !- Conductivity {W/m-K}
  91,                                     !- Density {kg/m3}
  836.999999999999,                       !- Specific Heat {J/kg-K}
  0.9,                                    !- Thermal Absorptance
  0.5,                                    !- Solar Absorptance
  0.5;                                    !- Visible Absorptance

OS:Construction,
  {d8c84fc2-2917-4063-8397-7c031ae784e5}, !- Handle
  ASHRAE 189.1-2009 ExtWall Mass ClimateZone alt-res 1, !- Name
  ,                                       !- Surface Rendering Name
  {903b4fc1-a0d2-4f7a-9a94-949bd391e68b}, !- Layer 1
  {b549451d-473e-4019-a357-9a4ec28fcd4e}, !- Layer 2
  {75878728-3180-49ff-9f0d-b474d9dab4aa}, !- Layer 3
  {2f138f80-95a9-449a-bce6-9e9bb6056dde}; !- Layer 4

OS:StandardsInformation:Construction,
  {ea526f2c-5217-4907-be0f-b72647e69a81}, !- Handle
  {d8c84fc2-2917-4063-8397-7c031ae784e5}, !- Construction Name
  ExteriorWall,                           !- Intended Surface Type
  Mass;                                   !- Standards Construction Type

OS:Construction,
  {aa7471d7-a63c-48c1-887d-661d70ca0a3b}, !- Handle
  ASHRAE 189.1-2009 ExtWall Mass ClimateZone alt-res 2, !- Name
  ,                                       !- Surface Rendering Name
  {903b4fc1-a0d2-4f7a-9a94-949bd391e68b}, !- Layer 1
  {b549451d-473e-4019-a357-9a4ec28fcd4e}, !- Layer 2
  {72ff633a-e21f-466b-8106-96e81e2382c7}, !- Layer 3
  {2f138f80-95a9-449a-bce6-9e9bb6056dde}; !- Layer 4

OS:StandardsInformation:Construction,
  {a01b1863-31d2-49ec-93cd-ed2e1c8d15f8}, !- Handle
  {aa7471d7-a63c-48c1-887d-661d70ca0a3b}, !- Construction Name
  ExteriorWall,                           !- Intended Surface Type
  Mass;                                   !- Standards Construction Type

OS:Construction,
  {82891b8e-60b3-4243-aaae-7bfc7c26e9b9}, !- Handle
  ASHRAE 189.1-2009 ExtWall Mass ClimateZone alt-res 3, !- Name
  ,                                       !- Surface Rendering Name
  {903b4fc1-a0d2-4f7a-9a94-949bd391e68b}, !- Layer 1
  {b549451d-473e-4019-a357-9a4ec28fcd4e}, !- Layer 2
  {04162eb7-2455-41a5-a95f-b81c7c5659e2}, !- Layer 3
  {2f138f80-95a9-449a-bce6-9e9bb6056dde}; !- Layer 4

OS:StandardsInformation:Construction,
  {a9e2b2ab-d626-42e6-a7eb-ac6b818a955c}, !- Handle
  {82891b8e-60b3-4243-aaae-7bfc7c26e9b9}, !- Construction Name
  ExteriorWall,                           !- Intended Surface Type
  Mass;                                   !- Standards Construction Type

OS:Construction,
  {3e69b569-e1d2-4c0d-b31a-32cca424cb3a}, !- Handle
  ASHRAE 189.1-2009 ExtWall Mass ClimateZone alt-res 4, !- Name
  ,                                       !- Surface Rendering Name
  {903b4fc1-a0d2-4f7a-9a94-949bd391e68b}, !- Layer 1
  {b549451d-473e-4019-a357-9a4ec28fcd4e}, !- Layer 2
  {07dda3a5-3a25-45e9-a297-cabc92ebbb46}, !- Layer 3
  {2f138f80-95a9-449a-bce6-9e9bb6056dde}; !- Layer 4

OS:StandardsInformation:Construction,
  {8d26245b-9756-4ad4-8b63-9230b3d8bcdc}, !- Handle
  {3e69b569-e1d2-4c0d-b31a-32cca424cb3a}, !- Construction Name
  ExteriorWall,                           !- Intended Surface Type
  Mass;                                   !- Standards Construction Type

OS:Construction,
  {4050ac02-34a2-4d05-974b-0b602f6029cd}, !- Handle
  ASHRAE 189.1-2009 ExtWall Mass ClimateZone alt-res 5, !- Name
  ,                                       !- Surface Rendering Name
  {903b4fc1-a0d2-4f7a-9a94-949bd391e68b}, !- Layer 1
  {b549451d-473e-4019-a357-9a4ec28fcd4e}, !- Layer 2
  {ee41ca98-241e-4d1f-a4fe-1cd08668c99e}, !- Layer 3
  {2f138f80-95a9-449a-bce6-9e9bb6056dde}; !- Layer 4

OS:StandardsInformation:Construction,
  {a2dbce6a-de16-46c7-a4ea-7be9a619f66e}, !- Handle
  {4050ac02-34a2-4d05-974b-0b602f6029cd}, !- Construction Name
  ExteriorWall,                           !- Intended Surface Type
  Mass;                                   !- Standards Construction Type

OS:Construction,
  {290bd545-e160-4c49-aca9-018bedcaed09}, !- Handle
  ASHRAE 189.1-2009 ExtWall Mass ClimateZone alt-res 6, !- Name
  ,                                       !- Surface Rendering Name
  {903b4fc1-a0d2-4f7a-9a94-949bd391e68b}, !- Layer 1
  {b549451d-473e-4019-a357-9a4ec28fcd4e}, !- Layer 2
  {65a0476b-dbee-4bf2-b98e-0dff4f237a2f}, !- Layer 3
  {2f138f80-95a9-449a-bce6-9e9bb6056dde}; !- Layer 4

OS:StandardsInformation:Construction,
  {7aaf7172-c214-484e-977c-2873f093266b}, !- Handle
  {290bd545-e160-4c49-aca9-018bedcaed09}, !- Construction Name
  ExteriorWall,                           !- Intended Surface Type
  Mass;                                   !- Standards Construction Type

OS:Construction,
  {4d8d941b-fe0e-4595-82bf-4593071a103d}, !- Handle
  ASHRAE 189.1-2009 ExtWall Mass ClimateZone alt-res 7, !- Name
  ,                                       !- Surface Rendering Name
  {903b4fc1-a0d2-4f7a-9a94-949bd391e68b}, !- Layer 1
  {b549451d-473e-4019-a357-9a4ec28fcd4e}, !- Layer 2
  {65a0476b-dbee-4bf2-b98e-0dff4f237a2f}, !- Layer 3
  {2f138f80-95a9-449a-bce6-9e9bb6056dde}; !- Layer 4

OS:StandardsInformation:Construction,
  {46a53238-132d-457e-b893-b3eeee7957c9}, !- Handle
  {4d8d941b-fe0e-4595-82bf-4593071a103d}, !- Construction Name
  ExteriorWall,                           !- Intended Surface Type