
OS:Version,
  {7dbed54f-4f4b-4603-9e74-b1a9145a0534}, !- Handle
  1.2.3;                                  !- Version Identifier

OS:Construction,
  {0c2337e7-5c12-4102-b480-320b01520cae}, !- Handle
  ASHRAE 189.1-2009 AtticFloor ClimateZone 1-8, !- Name
  ,                                       !- Surface Rendering Name
  {6546ea19-eee2-4a5a-8520-d26c36b6d26d}, !- Layer 1
  {3eb6c1e9-a3e8-4be6-b4b6-9298e24215f9}, !- Layer 2
  {6546ea19-eee2-4a5a-8520-d26c36b6d26d}; !- Layer 3

OS:StandardsInformation:Construction,
  {6b01d7fe-885b-49d0-bb66-cbe2ba480c21}, !- Handle
  {0c2337e7-5c12-4102-b480-320b01520cae}, !- Construction Name
  AtticFloor,                             !- Intended Surface Type
  WoodFramed;                             !- Standards Construction Type

OS:Material,
  {6546ea19-eee2-4a5a-8520-d26c36b6d26d}, !- Handle
  1/2IN Gypsum,                           !- Name
  Smooth,                                 !- Roughness
  0.0127,                                 !- Thickness {m}
  0.16,                                   !- Conductivity {W/m-K}
  784.9,                                  !- Density {kg/m3}
  830.000000000001,                       !- Specific Heat {J/kg-K}
  0.9,                                    !- Thermal Absorptance
  0.92,                                   !- Solar Absorptance
  0.92;                                   !- Visible Absorptance

OS:Material,
  {3eb6c1e9-a3e8-4be6-b4b6-9298e24215f9}, !- Handle
  AtticFloor Insulation,                  !- Name
  MediumRough,                            !- Roughness
  0.2379,                                 !- Thickness {m}
  0.049,                                  !- Conductivity {W/m-K}
  265,                                    !- Density {kg/m3}
  836.800000000001,                       !- Specific Heat {J/kg-K}
  0.9,                                    !- Thermal Absorptance
  0.7,                                    !- Solar Absorptance
  0.7;                                    !- Visible Absorptance

OS:Construction,
  {a618b902-00a9-4b4d-aef5-c22b57c14319}, !- Handle
  ASHRAE 189.1-2009 ExtRoof IEAD ClimateZone 1, !- Name
  ,                                       !- Surface Rendering Name
  {8bd7e3ab-3b62-41b0-b06f-0cc75fad40ff}, !- Layer 1
  {a4c2c100-4bd6-49ea-970e-8a3383aa2446}, !- Layer 2
  {70de063a-07c8-49cb-98a7-bc5607c4f1e0}; !- Layer 3

OS:StandardsInformation:Construction,
  {757b9a0a-872e-43db-aabf-ede9982a44db}, !- Handle
  {a618b902-00a9-4b4d-aef5-c22b57c14319}, !- Construction Name
  ExteriorRoof,                           !- Intended Surface Type
  IEAD;                                   !- Standards Construction Type

OS:Material,
  {8bd7e3ab-3b62-41b0-b06f-0cc75fad40ff}, !- Handle
  Roof Membrane,                          !- Name
  VeryRough,                              !- Roughness
  0.0095,                                 !- Thickness {m}
  0.16,                                   !- Conductivity {W/m-K}
  1121.29,                                !- Density {kg/m3}
  1460,                                   !- Specific Heat {J/kg-K}
  0.9,                                    !- Thermal Absorptance
  0.7,                                    !- Solar Absorptance
  0.7;                                    !- Visible Absorptance

OS:Material,
  {a4c2c100-4bd6-49ea-970e-8a3383aa2446}, !- Handle
  Roof Insulation [18],                   !- Name
  MediumRough,                            !- Roughness
  0.1693,                                 !- Thickness {m}
  0.049,                                  !- Conductivity {W/m-K}
  265,                                    !- Density {kg/m3}
  836.800000000001,                       !- Specific Heat {J/kg-K}
  0.9,                                    !- Thermal Absorptance
  0.7,                                    !- Solar Absorptance
  0.7;                                    !- Visible Absorptance

OS:Material,
  {70de063a-07c8-49cb-98a7-bc5607c4f1e0}, !- Handle
  Metal Decking,                          !- Name
  MediumSmooth,                           !- Roughness
  0.0015,                                 !- Thickness {m}
  45.006,                                 !- Conductivity {W/m-K}
  7680,                                   !- Density {kg/m3}
  418.4,                                  !- Specific Heat {J/kg-K}
  0.9,                                    !- Thermal Absorptance
  0.7,                                    !- Solar Absorptance
  0.3;                                    !- Visible Absorptance

OS:Construction,
  {7c17e13f-d090-41bd-bda2-ffc1079a2e31}, !- Handle
  ASHRAE 189.1-2009 ExtRoof IEAD ClimateZone 2-5, !- Name
  ,                                       !- Surface Rendering Name
  {8bd7e3ab-3b62-41b0-b06f-0cc75fad40ff}, !- Layer 1
  {8ec0aa56-c89a-4db0-a4d4-c7966c95febc}, !- Layer 2
  {70de063a-07c8-49cb-98a7-bc5607c4f1e0}; !- Layer 3

OS:StandardsInformation:Construction,
  {2a4e8207-8b5f-4613-80dd-35526473f71b}, !- Handle
  {7c17e13f-d090-41bd-bda2-ffc1079a2e31}, !- Construction Name
  ExteriorRoof,                           !- Intended Surface Type
  IEAD;                                   !- Standards Construction Type

OS:Material,
  {8ec0aa56-c89a-4db0-a4d4-c7966c95febc}, !- Handle
  Roof Insulation [21],                   !- Name
  MediumRough,                            !- Roughness
  0.2105,                                 !- Thickness {m}
  0.049,                                  !- Conductivity {W/m-K}
  265,                                    !- Density {kg/m3}
  836.800000000001,                       !- Specific Heat {J/kg-K}
  0.9,                                    !- Thermal Absorptance
  0.7,                                    !- Solar Absorptance
  0.7;                                    !- Visible Absorptance

OS:Construction,
  {8e0e7836-4843-4fda-8ee6-98f96a8c2d35}, !- Handle
  ASHRAE 189.1-2009 ExtRoof IEAD ClimateZone 6, !- Name
  ,                                       !- Surface Rendering Name
  {8bd7e3ab-3b62-41b0-b06f-0cc75fad40ff}, !- Layer 1
  {5410e444-ea62-45ef-85f7-39f4b8b08981}, !- Layer 2
  {70de063a-07c8-49cb-98a7-bc5607c4f1e0}; !- Layer 3

OS:StandardsInformation:Construction,
  {85ed0d62-2190-4788-bf69-b4f77ae8fd4c}, !- Handle
  {8e0e7836-4843-4fda-8ee6-98f96a8c2d35}, !- Construction Name
  ExteriorRoof,                           !- Intended Surface Type
  IEAD;                                   !- Standards Construction Type

OS:Material,
  {5410e444-ea62-45ef-85f7-39f4b8b08981}, !- Handle
  Roof Insulation [24],                   !- Name
  MediumRough,                            !- Roughness
  0.260100000000001,                      !- Thickness {m}
  0.049,                                  !- Conductivity {W/m-K}
  265,                                    !- Density {kg/m3}
  836.800000000001,                       !- Specific Heat {J/kg-K}
  0.9,                                    !- Thermal Absorptance
  0.7,                                    !- Solar Absorptance
  0.7;                                    !- Visible Absorptance

OS:Construction,
  {f7ee1280-7b1a-4a68-8992-d31a0d72afe6}, !- Handle
  ASHRAE 189.1-2009 ExtRoof IEAD ClimateZone 7-8, !- Name
  ,                                       !- Surface Rendering Name
  {8bd7e3ab-3b62-41b0-b06f-0cc75fad40ff}, !- Layer 1
  {3938dcbc-9950-4f2c-b9a4-f6489a098680}, !- Layer 2
  {70de063a-07c8-49cb-98a7-bc5607c4f1e0}; !- Layer 3

OS:StandardsInformation:Construction,
  {f3aefe76-bf68-4a06-8ba5-0bd7f126c6cc}, !- Handle
  {f7ee1280-7b1a-4a68-8992-d31a0d72afe6}, !- Construction Name
  ExteriorRoof,                           !- Intended Surface Type
  IEAD;                                   !- Standards Construction Type

OS:Material,
  {3938dcbc-9950-4f2c-b9a4-f6489a098680}, !- Handle
  Roof Insulation [26],                   !- Name
  MediumRough,                            !- Roughness
  0.2941,                                 !- Thickness {m}
  0.049,                                  !- Conductivity {W/m-K}
  265,                                    !- Density {kg/m3}
  836.800000000001,                       !- Specific Heat {J/kg-K}
  0.9,                                    !- Thermal Absorptance
  0.7,                                    !- Solar Absorptance
  0.7;                                    !- Visible Absorptance

OS:Construction,
  {72eb2a9d-eea0-4f35-8556-db7e76aaaf4f}, !- Handle
  ASHRAE 189.1-2009 ExtRoof Metal ClimateZone 1, !- Name
  ,                                       !- Surface Rendering Name
  {c9d4e80d-ebd8-46b0-828c-3e1b441b3173}, !- Layer 1
  {03d12bae-c6ba-4279-8d48-417b0b29cf92}; !- Layer 2

OS:StandardsInformation:Construction,
  {06c3e623-a32c-44d5-83e8-e96da358e08e}, !- Handle
  {72eb2a9d-eea0-4f35-8556-db7e76aaaf4f}, !- Construction Name
  ExteriorRoof,                           !- Intended Surface Type
  Metal;                                  !- Standards Construction Type

OS:Material,
  {c9d4e80d-ebd8-46b0-828c-3e1b441b3173}, !- Handle
  Metal Roofing,                          !- Name
  MediumSmooth,                           !- Roughness
  0.0015,                                 !- Thickness {m}
  45.006,                                 !- Conductivity {W/m-K}
  7680,                                   !- Density {kg/m3}
  418.4,                                  !- Specific Heat {J/kg-K}
  0.9,                                    !- Thermal Absorptance
  0.3,                                    !- Solar Absorptance
  0.3;                                    !- Visible Absorptance

OS:Material,
  {03d12bae-c6ba-4279-8d48-417b0b29cf92}, !- Handle
  Roof Insulation [19],                   !- Name
  MediumRough,                            !- Roughness
  0.1868,                                 !- Thickness {m}
  0.049,                                  !- Conductivity {W/m-K}
  265,                                    !- Density {kg/m3}
  836.800000000001,                       !- Specific Heat {J/kg-K}
  0.9,                                    !- Thermal Absorptance
  0.7,                                    !- Solar Absorptance
  0.7;                                    !- Visible Absorptance

OS:Construction,
  {8fd80837-9ffe-4161-9fd9-287ddd6e591a}, !- Handle
  ASHRAE 189.1-2009 ExtRoof Metal ClimateZone 2-5, !- Name
  ,                                       !- Surface Rendering Name
  {c9d4e80d-ebd8-46b0-828c-3e1b441b3173}, !- Layer 1
  {0cc64327-c20e-4ed4-8305-21feb26323e4}; !- Layer 2

OS:StandardsInformation:Construction,
  {93ac9849-0d3a-4c43-b771-1ec2dd08b403}, !- Handle
  {8fd80837-9ffe-4161-9fd9-287ddd6e591a}, !- Construction Name
  ExteriorRoof,                           !- Intended Surface Type
  Metal;                                  !- Standards Construction Type

OS:Material,
  {0cc64327-c20e-4ed4-8305-21feb26323e4}, !- Handle
  Roof Insulation [22],                   !- Name
  MediumRough,                            !- Roughness
  0.2358,                                 !- Thickness {m}
  0.049,                                  !- Conductivity {W/m-K}
  265,                                    !- Density {kg/m3}
  836.800000000001,                       !- Specific Heat {J/kg-K}
  0.9,                                    !- Thermal Absorptance
  0.7,                                    !- Solar Absorptance
  0.7;                                    !- Visible Absorptance

OS:Construction,
  {80f2b823-bcab-411a-93a8-0f34bf3011fc}, !- Handle
  ASHRAE 189.1-2009 ExtRoof Metal ClimateZone 6, !- Name
  ,                                       !- Surface Rendering Name
  {c9d4e80d-ebd8-46b0-828c-3e1b441b3173}, !- Layer 1
  {9d292e2d-cc75-4efc-aa89-d1eefda7665b}; !- Layer 2

OS:StandardsInformation:Construction,
  {1fc5de38-5305-415b-874f-06129ae72dad}, !- Handle
  {80f2b823-bcab-411a-93a8-0f34bf3011fc}, !- Construction Name
  ExteriorRoof,                           !- Intended Surface Type
  Metal;                                  !- Standards Construction Type

OS:Material,
  {9d292e2d-cc75-4efc-aa89-d1eefda7665b}, !- Handle
  Roof Insulation [25],                   !- Name
  MediumRough,                            !- Roughness
  0.263,                                  !- Thickness {m}
  0.049,                                  !- Conductivity {W/m-K}
  265,                                    !- Density {kg/m3}
  836.800000000001,                       !- Specific Heat {J/kg-K}
  0.9,                                    !- Thermal Absorptance
  0.7,                                    !- Solar Absorptance
  0.7;                                    !- Visible Absorptance

OS:Construction,
  {5f48a10b-146e-48ce-81a6-58dbca3377ec}, !- Handle
  ASHRAE 189.1-2009 ExtRoof Metal ClimateZone 7-8, !- Name
  ,                                       !- Surface Rendering Name
  {c9d4e80d-ebd8-46b0-828c-3e1b441b3173}, !- Layer 1
  {cbcee01f-5ee0-4a44-b6fa-4e3cc860a56c}; !- Layer 2

OS:StandardsInformation:Construction,
  {71f2d124-c7b6-45f8-990e-ab5c6339edf0}, !- Handle
  {5f48a10b-146e-48ce-81a6-58dbca3377ec}, !- Construction Name
  ExteriorRoof,                           !- Intended Surface Type
  Metal;                                  !- Standards Construction Type

OS:Material,
  {cbcee01f-5ee0-4a44-b6fa-4e3cc860a56c}, !- Handle
  Roof Insulation [27],                   !- Name
  MediumRough,                            !- Roughness
  0.297000000000001,                      !- Thickness {m}
  0.049,                                  !- Conductivity {W/m-K}
  265,                                    !- Density {kg/m3}
  836.800000000001,                       !- Specific Heat {J/kg-K}
  0.9,                                    !- Thermal Absorptance
  0.7,                                    !- Solar Absorptance
  0.7;                                    !- Visible Absorptance

OS:Construction,
  {743bf96d-ab06-47a9-9dd9-40dbb9b3000a}, !- Handle
  ASHRAE 189.1-2009 ExtWall Mass ClimateZone 1, !- Name
  ,                                       !- Surface Rendering Name
  {f2e4b1c1-8523-444d-ab9c-d9b4891f5f06}, !- Layer 1
  {420689a9-b874-424e-8081-7181ebafad45}, !- Layer 2
  {141f55d0-8e5d-4720-902d-c54b5d2e53fc}, !- Layer 3
  {6546ea19-eee2-4a5a-8520-d26c36b6d26d}; !- Layer 4

OS:StandardsInformation:Construction,
  {c1e14177-e41d-4c37-8194-42a296bda9f1}, !- Handle
  {743bf96d-ab06-47a9-9dd9-40dbb9b3000a}, !- Construction Name
  ExteriorWall,                           !- Intended Surface Type
  Mass;                                   !- Standards Construction Type

OS:Material,
  {f2e4b1c1-8523-444d-ab9c-d9b4891f5f06}, !- Handle
  1IN Stucco,                             !- Name
  Smooth,                                 !- Roughness
  0.0253,                                 !- Thickness {m}
  0.691799999999999,                      !- Conductivity {W/m-K}
  1858,                                   !- Density {kg/m3}
  836.999999999999,                       !- Specific Heat {J/kg-K}
  0.9,                                    !- Thermal Absorptance
  0.92,                                   !- Solar Absorptance
  0.92;                                   !- Visible Absorptance

OS:Material,
  {420689a9-b874-424e-8081-7181ebafad45}, !- Handle
  8IN Concrete HW,                        !- Name
  MediumRough,                            !- Roughness
  0.2033,                                 !- Thickness {m}
  1.72959999999999,                       !- Conductivity {W/m-K}
  2242.99999999999,                       !- Density {kg/m3}
  836.999999999999,                       !- Specific Heat {J/kg-K}
  0.9,                                    !- Thermal Absorptance
  0.65,                                   !- Solar Absorptance
  0.65;                                   !- Visible Absorptance

OS:Material,
  {141f55d0-8e5d-4720-902d-c54b5d2e53fc}, !- Handle
  Wall Insulation [31],                   !- Name
  MediumRough,                            !- Roughness
  0.0337000000000001,                     !- Thickness {m}
  0.0432,                                 !- Conductivity {W/m-K}
  91,                                     !- Density {kg/m3}
  836.999999999999,                       !- Specific Heat {J/kg-K}
  0.9,                                    !- Thermal Absorptance
  0.5,                                    !- Solar Absorptance
  0.5;                                    !- Visible Absorptance

OS:Construction,
  {e1440c26-b0fe-4b17-9f15-5460699b48cd}, !- Handle
  ASHRAE 189.1-2009 ExtWall Mass ClimateZone 2, !- Name
  ,                                       !- Surface Rendering Name
  {f2e4b1c1-8523-444d-ab9c-d9b4891f5f06}, !- Layer 1
  {420689a9-b874-424e-8081-7181ebafad45}, !- Layer 2
  {b014a888-3a02-4c08-a520-5f3254d8c21d}, !- Layer 3
  {6546ea19-eee2-4a5a-8520-d26c36b6d26d}; !- Layer 4

OS:StandardsInformation:Construction,
  {89095185-b232-46ef-b060-84e989bf8e79}, !- Handle
  {e1440c26-b0fe-4b17-9f15-5460699b48cd}, !- Construction Name
  ExteriorWall,                           !- Intended Surface Type
  Mass;                                   !- Standards Construction Type

OS:Material,
  {b014a888-3a02-4c08-a520-5f3254d8c21d}, !- Handle
  Wall Insulation [35],                   !- Name
  MediumRough,                            !- Roughness
  0.0452,                                 !- Thickness {m}
  0.0432,                                 !- Conductivity {W/m-K}
  91,                                     !- Density {kg/m3}
  836.999999999999,                       !- Specific Heat {J/kg-K}
  0.9,                                    !- Thermal Absorptance
  0.5,                                    !- Solar Absorptance
  0.5;                                    !- Visible Absorptance

OS:Construction,
  {9e89881a-cbd3-434f-8693-1c58bdf62ff4}, !- Handle
  ASHRAE 189.1-2009 ExtWall Mass ClimateZone 3, !- Name
  ,                                       !- Surface Rendering Name
  {f2e4b1c1-8523-444d-ab9c-d9b4891f5f06}, !- Layer 1
  {420689a9-b874-424e-8081-7181ebafad45}, !- Layer 2
  {c794776d-5db8-4715-afdc-b85c6ca9c4ca}, !- Layer 3
  {6546ea19-eee2-4a5a-8520-d26c36b6d26d}; !- Layer 4

OS:StandardsInformation:Construction,
  {03b7388f-2b56-4d83-acca-ada7dd8fe512}, !- Handle
  {9e89881a-cbd3-434f-8693-1c58bdf62ff4}, !- Construction Name
  ExteriorWall,                           !- Intended Surface Type
  Mass;                                   !- Standards Construction Type

OS:Material,
  {c794776d-5db8-4715-afdc-b85c6ca9c4ca}, !- Handle
  Wall Insulation [36],                   !- Name
  MediumRough,                            !- Roughness
  0.0565999999999999,                     !- Thickness {m}
  0.0432,                                 !- Conductivity {W/m-K}
  91,                                     !- Density {kg/m3}
  836.999999999999,                       !- Specific Heat {J/kg-K}
  0.9,                                    !- Thermal Absorptance
  0.5,                                    !- Solar Absorptance
  0.5;                                    !- Visible Absorptance

OS:Construction,
  {5ffb355b-529c-432f-925d-d51e1265ee4a}, !- Handle
  ASHRAE 189.1-2009 ExtWall Mass ClimateZone 4, !- Name
  ,                                       !- Surface Rendering Name
  {f2e4b1c1-8523-444d-ab9c-d9b4891f5f06}, !- Layer 1
  {420689a9-b874-424e-8081-7181ebafad45}, !- Layer 2
  {a2b5878d-8e0a-4f39-a45d-fbf5f8f762d5}, !- Layer 3
  {6546ea19-eee2-4a5a-8520-d26c36b6d26d}; !- Layer 4

OS:StandardsInformation:Construction,
  {acbb5162-cc2e-4ce7-ae66-7a039a027258}, !- Handle
  {5ffb355b-529c-432f-925d-d51e1265ee4a}, !- Construction Name
  ExteriorWall,                           !- Intended Surface Type
  Mass;                                   !- Standards Construction Type

OS:Material,
  {a2b5878d-8e0a-4f39-a45d-fbf5f8f762d5}, !- Handle
  Wall Insulation [37],                   !- Name
  MediumRough,                            !- Roughness
  0.0680999999999999,                     !- Thickness {m}
  0.0432,                                 !- Conductivity {W/m-K}
  91,                                     !- Density {kg/m3}
  836.999999999999,                       !- Specific Heat {J/kg-K}
  0.9,                                    !- Thermal Absorptance
  0.5,                                    !- Solar Absorptance
  0.5;                                    !- Visible Absorptance

OS:Construction,
  {aea42437-8acd-42f5-a1cf-24d809950e92}, !- Handle
  ASHRAE 189.1-2009 ExtWall Mass ClimateZone 5, !- Name
  ,                                       !- Surface Rendering Name
  {f2e4b1c1-8523-444d-ab9c-d9b4891f5f06}, !- Layer 1
  {420689a9-b874-424e-8081-7181ebafad45}, !- Layer 2
  {d6f8416f-49aa-4091-9bd3-b7e9ee0e7dce}, !- Layer 3
  {6546ea19-eee2-4a5a-8520-d26c36b6d26d}; !- Layer 4

OS:StandardsInformation:Construction,
  {72b5e08f-9b03-4309-a104-c836651db2c4}, !- Handle
  {aea42437-8acd-42f5-a1cf-24d809950e92}, !- Construction Name
  ExteriorWall,                           !- Intended Surface Type
  Mass;                                   !- Standards Construction Type

OS:Material,
  {d6f8416f-49aa-4091-9bd3-b7e9ee0e7dce}, !- Handle
  Wall Insulation [40],                   !- Name
  MediumRough,                            !- Roughness
  0.0793999999999999,                     !- Thickness {m}
  0.0432,                                 !- Conductivity {W/m-K}
  91,                                     !- Density {kg/m3}
  836.999999999999,                       !- Specific Heat {J/kg-K}
  0.9,                                    !- Thermal Absorptance
  0.5,                                    !- Solar Absorptance
  0.5;                                    !- Visible Absorptance

OS:Construction,
  {ffe903ea-264f-4d64-8034-e24496660e3b}, !- Handle
  ASHRAE 189.1-2009 ExtWall Mass ClimateZone 6, !- Name
  ,                                       !- Surface Rendering Name
  {f2e4b1c1-8523-444d-ab9c-d9b4891f5f06}, !- Layer 1
  {420689a9-b874-424e-8081-7181ebafad45}, !- Layer 2
  {4565a87a-2cab-4967-8be7-75d45e26f23e}, !- Layer 3
  {6546ea19-eee2-4a5a-8520-d26c36b6d26d}; !- Layer 4

OS:StandardsInformation:Construction,
  {ae3e6a9d-acb7-45a5-9ae7-03cf8cbe36a5}, !- Handle
  {ffe903ea-264f-4d64-8034-e24496660e3b}, !- Construction Name
  ExteriorWall,                           !- Intended Surface Type
  Mass;                                   !- Standards Construction Type

OS:Material,
  {4565a87a-2cab-4967-8be7-75d45e26f23e}, !- Handle
  Wall Insulation [42],                   !- Name
  MediumRough,                            !- Roughness
  0.0913999999999999,                     !- Thickness {m}
  0.0432,                                 !- Conductivity {W/m-K}
  91,                                     !- Density {kg/m3}
  836.999999999999,                       !- Specific Heat {J/kg-K}
  0.9,                                    !- Thermal Absorptance
  0.5,                                    !- Solar Absorptance
  0.5;                                    !- Visible Absorptance

OS:Construction,
  {e5c095d1-6409-406c-a610-0e5f0d29f2dd}, !- Handle
  ASHRAE 189.1-2009 ExtWall Mass ClimateZone 7-8, !- Name
  ,                                       !- Surface Rendering Name
  {f2e4b1c1-8523-444d-ab9c-d9b4891f5f06}, !- Layer 1
  {420689a9-b874-424e-8081-7181ebafad45}, !- Layer 2
  {b681f573-3833-4a2c-b566-f791b53dc8f1}, !- Layer 3
  {6546ea19-eee2-4a5a-8520-d26c36b6d26d}; !- Layer 4

OS:StandardsInformation:Construction,
  {5ac894a2-fa68-4202-b937-26c6e4f7d8a9}, !- Handle
  {e5c095d1-6409-406c-a610-0e5f0d29f2dd}, !- Construction Name
  ExteriorWall,                           !- Intended Surface Type
  Mass;                                   !- Standards Construction Type

OS:Material,
  {b681f573-3833-4a2c-b566-f791b53dc8f1}, !- Handle
  Wall Insulation [44],                   !- Name
  MediumRough,                            !- Roughness
  0.1104,                                 !- Thickness {m}
  0.0432,                                 !- Conductivity {W/m-K}
  91,                                     !- Density {kg/m3}
  836.999999999999,                       !- Specific Heat {J/kg-K}
  0.9,                                    !- Thermal Absorptance
  0.5,                                    !- Solar Absorptance
  0.5;                                    !- Visible Absorptance

OS:Construction,
  {ca80ceef-3a3d-4930-9aba-30d878dfa905}, !- Handle
  ASHRAE 189.1-2009 ExtWall Mass ClimateZone alt-res 1, !- Name
  ,                                       !- Surface Rendering Name
  {f2e4b1c1-8523-444d-ab9c-d9b4891f5f06}, !- Layer 1
  {420689a9-b874-424e-8081-7181ebafad45}, !- Layer 2
  {b014a888-3a02-4c08-a520-5f3254d8c21d}, !- Layer 3
  {6546ea19-eee2-4a5a-8520-d26c36b6d26d}; !- Layer 4

OS:StandardsInformation:Construction,
  {79b368bc-5671-45b1-9fdd-98c93091cb0a}, !- Handle
  {ca80ceef-3a3d-4930-9aba-30d878dfa905}, !- Construction Name
  ExteriorWall,                           !- Intended Surface Type
  Mass;                                   !- Standards Construction Type

OS:Construction,
  {c24bec77-4ebd-405a-b82c-61999ad2f1f6}, !- Handle
  ASHRAE 189.1-2009 ExtWall Mass ClimateZone alt-res 2, !- Name
  ,                                       !- Surface Rendering Name
  {f2e4b1c1-8523-444d-ab9c-d9b4891f5f06}, !- Layer 1
  {420689a9-b874-424e-8081-7181ebafad45}, !- Layer 2
  {c794776d-5db8-4715-afdc-b85c6ca9c4ca}, !- Layer 3
  {6546ea19-eee2-4a5a-8520-d26c36b6d26d}; !- Layer 4

OS:StandardsInformation:Construction,
  {dfe38817-7695-48f3-ba37-315ffc60f8d2}, !- Handle
  {c24bec77-4ebd-405a-b82c-61999ad2f1f6}, !- Construction Name
  ExteriorWall,                           !- Intended Surface Type
  Mass;                                   !- Standards Construction Type

OS:Construction,
  {31c19999-b632-4317-92ec-4ff3e9bf8f58}, !- Handle
  ASHRAE 189.1-2009 ExtWall Mass ClimateZone alt-res 3, !- Name
  ,                                       !- Surface Rendering Name
  {f2e4b1c1-8523-444d-ab9c-d9b4891f5f06}, !- Layer 1
  {420689a9-b874-424e-8081-7181ebafad45}, !- Layer 2
  {a2b5878d-8e0a-4f39-a45d-fbf5f8f762d5}, !- Layer 3
  {6546ea19-eee2-4a5a-8520-d26c36b6d26d}; !- Layer 4

OS:StandardsInformation:Construction,
  {1c45a03a-bcd3-43d8-b505-f567f78ac865}, !- Handle
  {31c19999-b632-4317-92ec-4ff3e9bf8f58}, !- Construction Name
  ExteriorWall,                           !- Intended Surface Type
  Mass;                                   !- Standards Construction Type

OS:Construction,
  {74148e14-29d8-4ecf-83ea-604a15499a85}, !- Handle
  ASHRAE 189.1-2009 ExtWall Mass ClimateZone alt-res 4, !- Name
  ,                                       !- Surface Rendering Name
  {f2e4b1c1-8523-444d-ab9c-d9b4891f5f06}, !- Layer 1
  {420689a9-b874-424e-8081-7181ebafad45}, !- Layer 2
  {d6f8416f-49aa-4091-9bd3-b7e9ee0e7dce}, !- Layer 3
  {6546ea19-eee2-4a5a-8520-d26c36b6d26d}; !- Layer 4

OS:StandardsInformation:Construction,
  {c571e6cd-ee9f-4a7a-b015-ab3ab6fd5084}, !- Handle
  {74148e14-29d8-4ecf-83ea-604a15499a85}, !- Construction Name
  ExteriorWall,                           !- Intended Surface Type
  Mass;                                   !- Standards Construction Type

OS:Construction,
  {2495fd89-3908-48a2-be7c-8ace4b04aac3}, !- Handle
  ASHRAE 189.1-2009 ExtWall Mass ClimateZone alt-res 5, !- Name
  ,                                       !- Surface Rendering Name
  {f2e4b1c1-8523-444d-ab9c-d9b4891f5f06}, !- Layer 1
  {420689a9-b874-424e-8081-7181ebafad45}, !- Layer 2
  {4565a87a-2cab-4967-8be7-75d45e26f23e}, !- Layer 3
  {6546ea19-eee2-4a5a-8520-d26c36b6d26d}; !- Layer 4

OS:StandardsInformation:Construction,
  {9d9cad5b-0d97-43f2-904c-4afe37c2ca2f}, !- Handle
  {2495fd89-3908-48a2-be7c-8ace4b04aac3}, !- Construction Name
  ExteriorWall,                           !- Intended Surface Type
  Mass;                                   !- Standards Construction Type

OS:Construction,
  {68b2c138-de73-417e-98f9-dc2f2e980c08}, !- Handle
  ASHRAE 189.1-2009 ExtWall Mass ClimateZone alt-res 6, !- Name
  ,                                       !- Surface Rendering Name
  {f2e4b1c1-8523-444d-ab9c-d9b4891f5f06}, !- Layer 1
  {420689a9-b874-424e-8081-7181ebafad45}, !- Layer 2
  {b681f573-3833-4a2c-b566-f791b53dc8f1}, !- Layer 3
  {6546ea19-eee2-4a5a-8520-d26c36b6d26d}; !- Layer 4

OS:StandardsInformation:Construction,
  {f3668509-fbdc-4d9f-ade6-7100ab1a11c6}, !- Handle
  {68b2c138-de73-417e-98f9-dc2f2e980c08}, !- Construction Name
  ExteriorWall,                           !- Intended Surface Type
  Mass;                                   !- Standards Construction Type

OS:Construction,
  {f014bee8-6bee-480b-8399-74babe2e72c7}, !- Handle
  ASHRAE 189.1-2009 ExtWall Mass ClimateZone alt-res 7, !- Name
  ,                                       !- Surface Rendering Name
  {f2e4b1c1-8523-444d-ab9c-d9b4891f5f06}, !- Layer 1
  {420689a9-b874-424e-8081-7181ebafad45}, !- Layer 2
  {b681f573-3833-4a2c-b566-f791b53dc8f1}, !- Layer 3
  {6546ea19-eee2-4a5a-8520-d26c36b6d26d}; !- Layer 4

OS:StandardsInformation:Construction,
  {7b6cd1aa-3256-4b3e-b47b-dcc094648675}, !- Handle
  {f014bee8-6bee-480b-8399-74babe2e72c7}, !- Construction Name
  ExteriorWall,                           !- Intended Surface Type
  Mass;                                   !- Standards Construction Type

OS:Construction,
  {f3b6b15e-55ef-4ed5-9a8a-b18dbc17c84c}, !- Handle
  ASHRAE 189.1-2009 ExtWall Mass ClimateZone alt-res 8, !- Name