
OS:Version,
  {5ddd1ddb-3814-4a72-96b8-fcb38d2912af}, !- Handle
  1.1.2;                                  !- Version Identifier

OS:Schedule:Constant,
  {f0b1fc9f-d50e-4609-85f3-1154abadbd43}, !- Handle
  Always On Discrete,                     !- Name
  {1f0d23cf-841c-4fd6-b342-93c2144012cc}, !- Schedule Type Limits Name
  1;                                      !- Value

OS:ScheduleTypeLimits,
  {1f0d23cf-841c-4fd6-b342-93c2144012cc}, !- Handle
  Always On Discrete Limits,              !- Name
  0,                                      !- Lower Limit Value {BasedOnField A4}
  1,                                      !- Upper Limit Value {BasedOnField A4}
  Discrete,                               !- Numeric Type
  Availability;                           !- Unit Type

OS:Building,
  {1ce5342f-11b9-4205-91cb-8fa3e580d565}, ! Handle
  Strip Mall,                             ! Name
  ,                                       ! Building Type
  -0,                                     ! North Axis
  ,                                       ! Nominal Floor to Floor Height
  {5fb9b2e3-aa72-48db-9cf1-378367663385}, ! Space Type Name
  {30841afd-556f-4b01-b53a-4dccfb1aa88c}, ! Default Construction Set Name
  ;                                       ! Default Schedule Set Name

OS:Construction,
  {52a17992-7418-4633-a0a6-9a5ceff5e1e4}, ! Handle
  000 AtticRoof ClimateZone 1-8,          ! Name
  {075dcb60-790e-4b4a-9aa8-eefcce9298b1}, ! Surface Rendering Name
  {ce4a2905-3f32-4399-bdd8-83b9e8b7ab2c}, ! Layer 1
  {064cb80f-b94f-408d-b8f9-41e8e427a888}; ! Layer 2

OS:Construction,
  {8bb68d10-4465-42d8-b3cd-936c49bde9b6}, ! Handle
  000 ExtSlabCarpet 4in ClimateZone 1-8,  ! Name
  {3371fe10-7f07-45e9-81e2-00b485560626}, ! Surface Rendering Name
  {0ef6b771-710e-4c41-8484-317c3e8012ea}, ! Layer 1
  {dfe748e6-2de5-41cd-9af0-49cd7a668b84}; ! Layer 2

OS:Construction,
  {ea7b2c11-f403-419e-8e12-7682971e4d56}, ! Handle
  000 ExtSlabCarpet 8in ClimateZone 1-8,  ! Name
  {07388149-330b-4d34-b2db-25478784e9e6}, ! Surface Rendering Name
  {5a5e9b64-b96e-4342-8e95-82497cbbd1cc}, ! Layer 1
  {dfe748e6-2de5-41cd-9af0-49cd7a668b84}; ! Layer 2

OS:Construction,
  {b2d6644e-2af3-4d70-81d1-3478af1424f3}, ! Handle
  000 ExtSlab 4in ClimateZone 1-8,        ! Name
  {56e4c573-3f3e-4695-bc42-9947a39d19eb}, ! Surface Rendering Name
  {0ef6b771-710e-4c41-8484-317c3e8012ea}; ! Layer 1

OS:Construction,
  {6eb2bd2b-bc0a-44c4-a2ae-3820d2033d29}, ! Handle
  000 ExtSlab 8in ClimateZone 1-8,        ! Name
  {c660408a-1c90-4f4b-9e7b-b448a2467ee4}, ! Surface Rendering Name
  {5a5e9b64-b96e-4342-8e95-82497cbbd1cc}; ! Layer 1

OS:Construction,
  {fd54dd19-d57c-45f0-8faa-535cac7f5907}, ! Handle
  000 Exterior Door,                      ! Name
  {54c5aebb-bdf3-4609-b9de-b7348d5118a0}, ! Surface Rendering Name
  {35643dc5-3e5b-4d61-92b3-0043eacf3508}, ! Layer 1
  {4e0e9da1-2188-4011-9c87-b1d76e08a777}; ! Layer 2

OS:Construction,
  {daed753f-fba3-4794-aa87-c34823b1ba3f}, ! Handle
  000 Exterior Floor,                     ! Name
  {c5ed3b44-cde0-4997-9a68-ccfacb0d9cae}, ! Surface Rendering Name
  {2df2309e-626a-4380-8c04-85139029c377}, ! Layer 1
  {ada7b6b8-232c-43f2-9ade-9450c5dd44c9}; ! Layer 2

OS:Construction,
  {a871cf05-1260-4897-a3b9-60171ded6792}, ! Handle
  000 Exterior Roof,                      ! Name
  {71a7c1b0-c7c4-4eaa-982e-cfa2bf8784dd}, ! Surface Rendering Name
  {1f6703cb-c992-4166-a77d-a48d2c21e71c}, ! Layer 1
  {2dc6ba8d-3df6-4bce-a7b2-961ed0f0b697}, ! Layer 2
  {e89c70f5-c097-4276-9ecd-3f2ce8d2998e}; ! Layer 3

OS:Construction,
  {0e385ba4-3ccd-4f57-86ad-e0ef6e446767}, ! Handle
  000 Exterior Wall,                      ! Name
  {41c60834-0124-412c-a4da-9b278878cf02}, ! Surface Rendering Name
  {8505c325-4f0a-4f03-930e-c0a8be102aeb}, ! Layer 1
  {ada7b6b8-232c-43f2-9ade-9450c5dd44c9}, ! Layer 2
  {2df2309e-626a-4380-8c04-85139029c377}, ! Layer 3
  {78f8ee1f-9131-4b56-98f6-5b5afc1a09e2}, ! Layer 4
  {ae16f420-b06c-46f4-a51c-6b962b2ece83}; ! Layer 5

OS:Construction,
  {d048796f-b6e2-43cb-9811-e8876fb415d8}, ! Handle
  000 Exterior Window,                    ! Name
  {faf0a29f-4973-4344-afed-293213d88323}, ! Surface Rendering Name
  {aeb0b6ab-8420-4e4e-86f9-7737a26d40a1}, ! Layer 1
  {32d9a742-0ea2-4a4a-82f6-436017ed6d84}, ! Layer 2
  {aeb0b6ab-8420-4e4e-86f9-7737a26d40a1}; ! Layer 3

OS:Construction,
  {be76230d-acba-4dee-a2bf-5e1f0ecd854c}, ! Handle
  000 Interior Ceiling,                   ! Name
  {c3c41857-0bf8-4260-82e5-839c12374533}, ! Surface Rendering Name
  {1f6703cb-c992-4166-a77d-a48d2c21e71c}, ! Layer 1
  {2dc6ba8d-3df6-4bce-a7b2-961ed0f0b697}, ! Layer 2
  {e89c70f5-c097-4276-9ecd-3f2ce8d2998e}; ! Layer 3

OS:Construction,
  {6624cf07-66ff-4c0c-a6fe-74841774313e}, ! Handle
  000 Interior Door,                      ! Name
  {35134b5e-5109-42d8-a0d2-bd6cfddc9dfa}, ! Surface Rendering Name
  {9254a46a-53c8-442e-8959-5d13eceadb88}; ! Layer 1

OS:Construction,
  {1c30a89a-0eee-47c2-bfb2-345e9059c456}, ! Handle
  000 Interior Floor,                     ! Name
  {c392fb30-ce7a-4cfb-8e24-fe63e7ec590e}, ! Surface Rendering Name
  {e89c70f5-c097-4276-9ecd-3f2ce8d2998e}, ! Layer 1
  {2dc6ba8d-3df6-4bce-a7b2-961ed0f0b697}, ! Layer 2
  {1f6703cb-c992-4166-a77d-a48d2c21e71c}; ! Layer 3

OS:Construction,
  {6c3c3fd3-6189-4588-8770-57d3d362068c}, ! Handle
  000 Interior Partition,                 ! Name
  {6618a262-c5c0-4032-9206-eee6f80b438e}, ! Surface Rendering Name
  {9254a46a-53c8-442e-8959-5d13eceadb88}; ! Layer 1

OS:Construction,
  {be251961-8414-41a8-acc5-83890902165d}, ! Handle
  000 Interior Wall,                      ! Name
  {e0afc8f1-753a-4f3f-ab64-3d2bf44beda9}, ! Surface Rendering Name
  {ae16f420-b06c-46f4-a51c-6b962b2ece83}, ! Layer 1
  {78f8ee1f-9131-4b56-98f6-5b5afc1a09e2}, ! Layer 2
  {ae16f420-b06c-46f4-a51c-6b962b2ece83}; ! Layer 3

OS:Construction,
  {12a04d99-1688-47b8-9d1f-4cc0162cd20f}, ! Handle
  000 Interior Window,                    ! Name
  {c0738958-bdf7-427d-8b49-25404902b998}, ! Surface Rendering Name
  {aeb0b6ab-8420-4e4e-86f9-7737a26d40a1}; ! Layer 1

OS:Construction,
  {c000a39b-6539-4efe-859c-49559441449f}, ! Handle
  ASHRAE 189.1-2009 AtticFloor ClimateZone 1-8, ! Name
  {ca9943fc-ab6b-4e52-bd76-9f05c03d1c58}, ! Surface Rendering Name
  {255a4ef5-db6e-439f-ac4c-72af8d5360a2}, ! Layer 1
  {147b0dcc-c536-48ff-a905-2e5b44e0e9ba}, ! Layer 2
  {255a4ef5-db6e-439f-ac4c-72af8d5360a2}; ! Layer 3

OS:Construction,
  {5055749b-17db-447e-8711-75610f358d6d}, ! Handle
  ASHRAE 189.1-2009 ExtRoof IEAD ClimateZone 1, ! Name
  {033375eb-3d5d-4606-9db9-86fc0245ebf6}, ! Surface Rendering Name
  {ce4a2905-3f32-4399-bdd8-83b9e8b7ab2c}, ! Layer 1
  {cc0a9288-f3cc-45d6-9177-c2219cda26ec}, ! Layer 2
  {064cb80f-b94f-408d-b8f9-41e8e427a888}; ! Layer 3

OS:Construction,
  {e536bbd5-1ab7-4d4a-abd1-1797e51119fc}, ! Handle
  ASHRAE 189.1-2009 ExtRoof IEAD ClimateZone 2-5, ! Name
  {a35f1b49-fc25-4317-b629-49a4b1f44eea}, ! Surface Rendering Name
  {ce4a2905-3f32-4399-bdd8-83b9e8b7ab2c}, ! Layer 1
  {f4d921ea-d868-49d0-bb24-f8e8c4e151cf}, ! Layer 2
  {064cb80f-b94f-408d-b8f9-41e8e427a888}; ! Layer 3

OS:Construction,
  {c343cad8-409b-42bf-8d26-3d0818a5f879}, ! Handle
  ASHRAE 189.1-2009 ExtRoof IEAD ClimateZone 6, ! Name
  {bbde019b-6c55-4bfc-931d-e1e8ad42aa4e}, ! Surface Rendering Name
  {ce4a2905-3f32-4399-bdd8-83b9e8b7ab2c}, ! Layer 1
  {c9a2e070-7103-4673-a02e-f11587becf2d}, ! Layer 2
  {064cb80f-b94f-408d-b8f9-41e8e427a888}; ! Layer 3

OS:Construction,
  {9f061842-e5ec-403b-a46d-767ccf14e7d7}, ! Handle
  ASHRAE 189.1-2009 ExtRoof IEAD ClimateZone 7-8, ! Name
  {97ed7439-0954-4596-a599-533257866c46}, ! Surface Rendering Name
  {ce4a2905-3f32-4399-bdd8-83b9e8b7ab2c}, ! Layer 1
  {2cbc107b-6b02-498a-9146-1c9d045b6202}, ! Layer 2
  {064cb80f-b94f-408d-b8f9-41e8e427a888}; ! Layer 3

OS:Construction,
  {15082b0d-633e-4ac2-b03c-6876e369955c}, ! Handle
  ASHRAE 189.1-2009 ExtRoof Metal ClimateZone 1, ! Name
  {d82e7bbb-4355-49d1-8f72-d54c0e7f1240}, ! Surface Rendering Name
  {d30cb0ce-d7ae-493c-aa50-c3d54a61a5bc}, ! Layer 1
  {2247b0e3-4ce3-4878-9897-d0538aa80016}; ! Layer 2

OS:Construction,
  {83230dd7-25f2-4dc0-983c-c59979d406df}, ! Handle
  ASHRAE 189.1-2009 ExtRoof Metal ClimateZone 2-5, ! Name
  {31f5060f-d612-42f0-bc88-5355b81308bb}, ! Surface Rendering Name
  {d30cb0ce-d7ae-493c-aa50-c3d54a61a5bc}, ! Layer 1
  {897e1517-9cf4-4674-b51d-390b60b5fa53}; ! Layer 2

OS:Construction,
  {34525466-be42-4ef6-a452-8c36beaa0078}, ! Handle
  ASHRAE 189.1-2009 ExtRoof Metal ClimateZone 6, ! Name
  {81bdf810-0d25-4fce-8c49-57157cc7902c}, ! Surface Rendering Name
  {d30cb0ce-d7ae-493c-aa50-c3d54a61a5bc}, ! Layer 1
  {4dd59015-019e-44b2-b34a-d40ecb827908}; ! Layer 2

OS:Construction,
  {8546e1dd-79eb-4421-8987-266864cd5ab6}, ! Handle
  ASHRAE 189.1-2009 ExtRoof Metal ClimateZone 7-8, ! Name
  {f96cd2ad-077a-4dc6-94e3-363c4a6a4697}, ! Surface Rendering Name
  {d30cb0ce-d7ae-493c-aa50-c3d54a61a5bc}, ! Layer 1
  {84bc586f-b6e2-4ef9-a9d0-2556525e3ebb}; ! Layer 2

OS:Construction,
  {6692b017-ed8e-4112-a540-dc7e20714f46}, ! Handle
  ASHRAE 189.1-2009 ExtWall Mass ClimateZone 1, ! Name
  {c873ab87-6fa6-46ad-bed3-fb9d5b490d6b}, ! Surface Rendering Name
  {3d6ad14a-e069-469e-905e-cdfda8b2190f}, ! Layer 1
  {deef2735-3a98-4cd2-b95e-9ce79002a13f}, ! Layer 2
  {c73a4fd4-dbcb-4967-94b3-4ba000054d31}, ! Layer 3
  {255a4ef5-db6e-439f-ac4c-72af8d5360a2}; ! Layer 4

OS:Construction,
  {088b7384-396c-4345-9b14-e01cf4a8780e}, ! Handle
  ASHRAE 189.1-2009 ExtWall Mass ClimateZone 2, ! Name
  {1cca78fa-b918-4477-9c3c-749be1d3535f}, ! Surface Rendering Name
  {3d6ad14a-e069-469e-905e-cdfda8b2190f}, ! Layer 1
  {deef2735-3a98-4cd2-b95e-9ce79002a13f}, ! Layer 2
  {82ebeabd-4d17-4193-93df-5c57b0be2008}, ! Layer 3
  {255a4ef5-db6e-439f-ac4c-72af8d5360a2}; ! Layer 4

OS:Construction,
  {f94f6111-d2af-4861-8986-6f0fdecbf0e1}, ! Handle
  ASHRAE 189.1-2009 ExtWall Mass ClimateZone 3, ! Name
  {d689385f-a23b-4f8a-bc19-c5d9190e36af}, ! Surface Rendering Name
  {3d6ad14a-e069-469e-905e-cdfda8b2190f}, ! Layer 1
  {deef2735-3a98-4cd2-b95e-9ce79002a13f}, ! Layer 2
  {2bc602f3-3cd4-44c0-9158-597ce3864943}, ! Layer 3
  {255a4ef5-db6e-439f-ac4c-72af8d5360a2}; ! Layer 4

OS:Construction,
  {a0cea064-c520-4232-b3c7-1716856f2863}, ! Handle
  ASHRAE 189.1-2009 ExtWall Mass ClimateZone 4, ! Name
  {f3c2fa0f-9ea1-4d96-ae93-1eca8f958d2d}, ! Surface Rendering Name
  {3d6ad14a-e069-469e-905e-cdfda8b2190f}, ! Layer 1
  {deef2735-3a98-4cd2-b95e-9ce79002a13f}, ! Layer 2
  {3622d2af-b2ad-4c9e-a8bd-65430997b023}, ! Layer 3
  {255a4ef5-db6e-439f-ac4c-72af8d5360a2}; ! Layer 4

OS:Construction,
  {b2736168-f041-4226-bf6a-4ea192104593}, ! Handle
  ASHRAE 189.1-2009 ExtWall Mass ClimateZone 5, ! Name
  {b9d9fd1b-27d8-4c7e-9f15-a66c4692c00c}, ! Surface Rendering Name
  {3d6ad14a-e069-469e-905e-cdfda8b2190f}, ! Layer 1
  {deef2735-3a98-4cd2-b95e-9ce79002a13f}, ! Layer 2
  {9b6813b8-5dc5-4384-a214-1a9d729473c5}, ! Layer 3
  {255a4ef5-db6e-439f-ac4c-72af8d5360a2}; ! Layer 4

OS:Construction,
  {21267c9a-bbd7-4fa0-b36f-4b59a0f5ea29}, ! Handle
  ASHRAE 189.1-2009 ExtWall Mass ClimateZone 6, ! Name
  {694e7424-63fe-469e-8f7e-ad44b27543e6}, ! Surface Rendering Name
  {3d6ad14a-e069-469e-905e-cdfda8b2190f}, ! Layer 1
  {deef2735-3a98-4cd2-b95e-9ce79002a13f}, ! Layer 2
  {67ceff8b-7df5-4c19-93bb-694aafc02490}, ! Layer 3
  {255a4ef5-db6e-439f-ac4c-72af8d5360a2}; ! Layer 4

OS:Construction,
  {3350701a-7fa9-4b6e-9835-a7bc40d00801}, ! Handle
  ASHRAE 189.1-2009 ExtWall Mass ClimateZone 7-8, ! Name
  {10468a88-195f-47f6-97eb-c55d349b132a}, ! Surface Rendering Name
  {3d6ad14a-e069-469e-905e-cdfda8b2190f}, ! Layer 1
  {deef2735-3a98-4cd2-b95e-9ce79002a13f}, ! Layer 2
  {ca011ed0-ecef-4780-b735-4689e5760be8}, ! Layer 3
  {255a4ef5-db6e-439f-ac4c-72af8d5360a2}; ! Layer 4

OS:Construction,
  {11f126ad-0493-48ea-b1f7-e4ddfcdd1674}, ! Handle
  ASHRAE 189.1-2009 ExtWall Mass ClimateZone alt-res 1, ! Name
  {96a64b60-bce8-4b4b-aa36-6c06df2464ff}, ! Surface Rendering Name
  {3d6ad14a-e069-469e-905e-cdfda8b2190f}, ! Layer 1
  {deef2735-3a98-4cd2-b95e-9ce79002a13f}, ! Layer 2
  {82ebeabd-4d17-4193-93df-5c57b0be2008}, ! Layer 3
  {255a4ef5-db6e-439f-ac4c-72af8d5360a2}; ! Layer 4

OS:Construction,
  {c30db646-1e20-4fff-8f04-d19cf3cf5eec}, ! Handle
  ASHRAE 189.1-2009 ExtWall Mass ClimateZone alt-res 2, ! Name
  {ac6695df-e71d-4f7b-817e-2ffc5d6e8287}, ! Surface Rendering Name
  {3d6ad14a-e069-469e-905e-cdfda8b2190f}, ! Layer 1
  {deef2735-3a98-4cd2-b95e-9ce79002a13f}, ! Layer 2
  {2bc602f3-3cd4-44c0-9158-597ce3864943}, ! Layer 3
  {255a4ef5-db6e-439f-ac4c-72af8d5360a2}; ! Layer 4

OS:Construction,
  {1cf1694f-65f9-40d0-b095-7965ca51afec}, ! Handle
  ASHRAE 189.1-2009 ExtWall Mass ClimateZone alt-res 3, ! Name
  {dd11315d-4414-4034-a4bb-263236efb2de}, ! Surface Rendering Name
  {3d6ad14a-e069-469e-905e-cdfda8b2190f}, ! Layer 1
  {deef2735-3a98-4cd2-b95e-9ce79002a13f}, ! Layer 2
  {3622d2af-b2ad-4c9e-a8bd-65430997b023}, ! Layer 3
  {255a4ef5-db6e-439f-ac4c-72af8d5360a2}; ! Layer 4

OS:Construction,
  {a37f0050-8065-47d0-918f-e2f0c4bdf49f}, ! Handle
  ASHRAE 189.1-2009 ExtWall Mass ClimateZone alt-res 4, ! Name
  {f8e32fb7-616f-40a2-ac86-5c7372faecf9}, ! Surface Rendering Name
  {3d6ad14a-e069-469e-905e-cdfda8b2190f}, ! Layer 1
  {deef2735-3a98-4cd2-b95e-9ce79002a13f}, ! Layer 2
  {9b6813b8-5dc5-4384-a214-1a9d729473c5}, ! Layer 3
  {255a4ef5-db6e-439f-ac4c-72af8d5360a2}; ! Layer 4

OS:Construction,
  {7b639e7f-3e39-40a1-b262-be0674055ab3}, ! Handle
  ASHRAE 189.1-2009 ExtWall Mass ClimateZone alt-res 5, ! Name
  {bee3eb0a-476f-4e55-8daf-05f154d62a35}, ! Surface Rendering Name
  {3d6ad14a-e069-469e-905e-cdfda8b2190f}, ! Layer 1
  {deef2735-3a98-4cd2-b95e-9ce79002a13f}, ! Layer 2
  {67ceff8b-7df5-4c19-93bb-694aafc02490}, ! Layer 3
  {255a4ef5-db6e-439f-ac4c-72af8d5360a2}; ! Layer 4

OS:Construction,
  {6c7690a2-3eeb-4327-b511-e9cb99d05d2b}, ! Handle
  ASHRAE 189.1-2009 ExtWall Mass ClimateZone alt-res 6, ! Name
  {b0e12af2-a047-4b1f-8b87-0fa3158dd7c8}, ! Surface Rendering Name
  {3d6ad14a-e069-469e-905e-cdfda8b2190f}, ! Layer 1
  {deef2735-3a98-4cd2-b95e-9ce79002a13f}, ! Layer 2
  {ca011ed0-ecef-4780-b735-4689e5760be8}, ! Layer 3
  {255a4ef5-db6e-439f-ac4c-72af8d5360a2}; ! Layer 4

OS:Construction,
  {e80284bc-966f-4266-9f77-d91acbf411f5}, ! Handle
  ASHRAE 189.1-2009 ExtWall Mass ClimateZone alt-res 7, ! Name
  {0e5dd70c-5025-40ed-8996-4da3781c0cf7}, ! Surface Rendering Name
  {3d6ad14a-e069-469e-905e-cdfda8b2190f}, ! Layer 1
  {deef2735-3a98-4cd2-b95e-9ce79002a13f}, ! Layer 2
  {ca011ed0-ecef-4780-b735-4689e5760be8}, ! Layer 3
  {255a4ef5-db6e-439f-ac4c-72af8d5360a2}; ! Layer 4

OS:Construction,
  {e9b27b9a-bc85-4f83-9bbd-66408f491b52}, ! Handle
  ASHRAE 189.1-2009 ExtWall Mass ClimateZone alt-res 8, ! Name
  {621372f0-112d-444f-a784-7207adbdfe4c}, ! Surface Rendering Name
  {3d6ad14a-e069-469e-905e-cdfda8b2190f}, ! Layer 1
  {deef2735-3a98-4cd2-b95e-9ce79002a13f}, ! Layer 2
  {2ee80970-7ea4-4262-8250-aeb73804da89}, ! Layer 3
  {255a4ef5-db6e-439f-ac4c-72af8d5360a2}; ! Layer 4

OS:Construction,
  {c4db5bbf-2b83-4044-bae4-2e2ab1778475}, ! Handle
  ASHRAE 189.1-2009 ExtWall Metal ClimateZone 1-3, ! Name
  {950c9ff6-7912-4b09-a422-f86f378a30f0}, ! Surface Rendering Name
  {46c70248-029b-4852-82d6-795368e0546b}, ! Layer 1
  {efeb2d13-bfa8-4053-a749-95ff24887339}, ! Layer 2
  {255a4ef5-db6e-439f-ac4c-72af8d5360a2}; ! Layer 3

OS:Construction,
  {6ee857f0-286c-4316-9ddc-47886e8a7d6a}, ! Handle
  ASHRAE 189.1-2009 ExtWall Metal ClimateZone 4-8, ! Name
  {6c03463d-db35-4805-9358-f2b115952cdc}, ! Surface Rendering Name
  {46c70248-029b-4852-82d6-795368e0546b}, ! Layer 1
  {79dd2666-7bc1-40d1-9f75-bc90d834e2e8}, ! Layer 2
  {255a4ef5-db6e-439f-ac4c-72af8d5360a2}; ! Layer 3

OS:Construction,
  {14f35fac-f67f-44ac-8095-510afe1a8a3b}, ! Handle
  ASHRAE 189.1-2009 ExtWall SteelFrame ClimateZone 1-3, ! Name
  {39311d2a-2613-47a2-afde-eb7bd0f87049}, ! Surface Rendering Name
  {f0a402dc-7683-41c7-a723-8426a81e16b8}, ! Layer 1
  {89a4a887-9853-4557-86f0-2e8401ea9775}, ! Layer 2
  {255a4ef5-db6e-439f-ac4c-72af8d5360a2}; ! Layer 3

OS:Construction,
  {8ceeb1df-ef27-4282-b1d0-36783923793d}, ! Handle
  ASHRAE 189.1-2009 ExtWall SteelFrame ClimateZone 4-8, ! Name
  {d3831f9e-9f3b-4067-98b9-68afba34101e}, ! Surface Rendering Name
  {f0a402dc-7683-41c7-a723-8426a81e16b8}, ! Layer 1
  {3cefce88-2def-4a96-9599-ed41c7cb5d87}, ! Layer 2
  {255a4ef5-db6e-439f-ac4c-72af8d5360a2}; ! Layer 3

OS:Construction,
  {d45099aa-a0d0-4ccc-b9f3-09e3250232ee}, ! Handle
  ASHRAE 189.1-2009 ExtWall WoodFrame ClimateZone 1-4, ! Name
  {d88ee245-59a5-4452-b52f-04a258b25b9d}, ! Surface Rendering Name
  {99fafe4b-d9dd-43d3-a115-43a4d6a7996d}, ! Layer 1
  {b1f57a52-ceb0-47ad-add8-b50cf67f5aca}, ! Layer 2
  {255a4ef5-db6e-439f-ac4c-72af8d5360a2}; ! Layer 3

OS:Construction,
  {2dc62389-0126-4cf8-a02c-4b8e51703f8c}, ! Handle
  ASHRAE 189.1-2009 ExtWall WoodFrame ClimateZone 5, ! Name
  {9241dc85-023e-43d9-b735-af29732552d3}, ! Surface Rendering Name
  {99fafe4b-d9dd-43d3-a115-43a4d6a7996d}, ! Layer 1
  {20acbf94-0bc7-4e94-86b1-c0fc38cf1312}, ! Layer 2
  {255a4ef5-db6e-439f-ac4c-72af8d5360a2}; ! Layer 3

OS:Construction,
  {7f5f2e0a-8258-40ba-8d24-f5ce9f217150}, ! Handle
  ASHRAE 189.1-2009 ExtWall WoodFrame ClimateZone 6-8, ! Name
  {51febff3-9ef0-4f6f-a197-099ad40b8681}, ! Surface Rendering Name
  {99fafe4b-d9dd-43d3-a115-43a4d6a7996d}, ! Layer 1
  {8c1f42b5-df06-4f20-a19d-854d16484f2a}, ! Layer 2
  {255a4ef5-db6e-439f-ac4c-72af8d5360a2}; ! Layer 3

OS:Construction,
  {7d52a8f1-56a9-4ab2-b69d-9ac8c6250d9c}, ! Handle
  ASHRAE 189.1-2009 ExtWindow ClimateZone 1, ! Name
  {0bca3881-5488-4a73-a0e3-db12af8f17e2}, ! Surface Rendering Name
  {3e0888a7-bd4a-4a14-a117-f2a78e1068fa}; ! Layer 1

OS:Construction,
  {9430936d-c661-4099-b6d7-42359cc03ced}, ! Handle
  ASHRAE 189.1-2009 ExtWindow ClimateZone 2, ! Name
  {bf8e205f-8bdc-4aa4-ab5d-b84d80031876}, ! Surface Rendering Name
  {39c7b7c7-4984-4aa9-91e5-127394b783e3}; ! Layer 1

OS:Construction,
  {87705e93-2279-4697-a8ba-157e5c06ab58}, ! Handle
  ASHRAE 189.1-2009 ExtWindow ClimateZone 3, ! Name
  {0143f85e-9616-4217-a147-dfe86fdf68d7}, ! Surface Rendering Name
  {3e6e6274-7ae4-4f73-935b-7db599f09cc2}; ! Layer 1

OS:Construction,
  {993cac61-3160-4dfe-858e-b890f6ac18c3}, ! Handle
  ASHRAE 189.1-2009 ExtWindow ClimateZone 4-5, ! Name
  {4d4beca7-d81b-4be2-9187-e02e127cc2e8}, ! Surface Rendering Name
  {c8fc7438-252a-4625-a1f3-e6811cdf395b}; ! Layer 1

OS:Construction,
  {f55e9134-2a10-4389-9578-e8b294512019}, ! Handle
  ASHRAE 189.1-2009 ExtWindow ClimateZone 6, ! Name
  {efeb9ae9-9fe8-4d33-bbc0-e44d87003669}, ! Surface Rendering Name
  {9610537c-d3c6-46c0-96ac-7e6d18206ff5}; ! Layer 1

OS:Construction,
  {c3b0ee19-fea5-4678-a6b6-56a5d82059d2}, ! Handle
  ASHRAE 189.1-2009 ExtWindow ClimateZone 7-8, ! Name
  {eee84231-2ef5-4450-80ad-490efc88b59f}, ! Surface Rendering Name
  {e1325449-0146-4d0d-b422-857bbfab1588}; ! Layer 1

OS:Construction,
  {386c649b-39e1-4366-bce5-6cf4c624d06d}, ! Handle
  ASHRAE 189.1-2009 ExtWindow ClimateZone alt-res 4-5, ! Name
  {c9171f1e-7642-4e28-bd4b-65c77dab157d}, ! Surface Rendering Name
  {9610537c-d3c6-46c0-96ac-7e6d18206ff5}; ! Layer 1

OS:Construction,
  {938f9137-9047-4f7f-b28f-b1086f95365e}, ! Handle
  ASHRAE 90.1-2004 AtticFloor ClimateZone 1-5, ! Name
  {38ddfc76-c0ef-49dd-aa8c-3f452b172efa}, ! Surface Rendering Name
  {255a4ef5-db6e-439f-ac4c-72af8d5360a2}, ! Layer 1
  {2fa4ce81-0531-492d-afc2-6855e47b12df}, ! Layer 2
  {255a4ef5-db6e-439f-ac4c-72af8d5360a2}; ! Layer 3

OS:Construction,
  {4caf294d-197b-4db9-be15-d0619accca9a}, ! Handle
  ASHRAE 90.1-2004 AtticFloor ClimateZone 6-8, ! Name
  {de2ad81f-e777-48c2-821a-c708feef157c}, ! Surface Rendering Name
  {255a4ef5-db6e-439f-ac4c-72af8d5360a2}, ! Layer 1
  {44349d3f-b6fd-460b-9acf-304384e7b379}, ! Layer 2
  {255a4ef5-db6e-439f-ac4c-72af8d5360a2}; ! Layer 3

OS:Construction,
  {8c095d0e-3b2c-4e15-813a-8b9330af407d}, ! Handle
  ASHRAE 90.1-2004 ExtRoof IEAD ClimateZone 1-4, ! Name
  {0c38b318-46e7-40cd-a6b0-cbc4ad4c6455}, ! Surface Rendering Name
  {ce4a2905-3f32-4399-bdd8-83b9e8b7ab2c}, ! Layer 1
  {f4ebde58-84d1-4691-8b92-6358311b192e}, ! Layer 2
  {064cb80f-b94f-408d-b8f9-41e8e427a888}; ! Layer 3

OS:Construction,
  {92849613-23b3-44c4-b148-ab0a75e2b1fd}, ! Handle
  ASHRAE 90.1-2004 ExtRoof IEAD ClimateZone 5-6, ! Name
  {ea267578-da19-4dc9-8000-97a0104c98b5}, ! Surface Rendering Name
  {ce4a2905-3f32-4399-bdd8-83b9e8b7ab2c}, ! Layer 1
  {5c2d9bc7-d9a7-478f-a532-2637ebeaa9b9}, ! Layer 2
  {064cb80f-b94f-408d-b8f9-41e8e427a888}; ! Layer 3

OS:Construction,
  {9c2be633-30e4-4cd9-90bc-ed22c242b829}, ! Handle
  ASHRAE 90.1-2004 ExtRoof IEAD ClimateZone 7, ! Name
  {54e294a9-59da-4e66-8087-cb65ecb40c42}, ! Surface Rendering Name
  {ce4a2905-3f32-4399-bdd8-83b9e8b7ab2c}, ! Layer 1
  {f4ebde58-84d1-4691-8b92-6358311b192e}, ! Layer 2
  {064cb80f-b94f-408d-b8f9-41e8e427a888}; ! Layer 3

OS:Construction,
  {699706f4-d264-4629-b4ca-209faf5741be}, ! Handle
  ASHRAE 90.1-2004 ExtRoof IEAD ClimateZone 8, ! Name
  {6f193947-4929-49eb-bd4f-56b08c79c19c}, ! Surface Rendering Name
  {ce4a2905-3f32-4399-bdd8-83b9e8b7ab2c}, ! Layer 1
  {308154cf-19c8-4e4d-9c49-544df338b759}, ! Layer 2
  {064cb80f-b94f-408d-b8f9-41e8e427a888}; ! Layer 3

OS:Construction,
  {0b394462-bc68-4cd5-a5b3-2a3952f55bc4}, ! Handle
  ASHRAE 90.1-2004 ExtRoof Metal ClimateZone 1, ! Name
  {ac5f76af-a404-44ea-84a7-2064ae954900}, ! Surface Rendering Name
  {d30cb0ce-d7ae-493c-aa50-c3d54a61a5bc}; ! Layer 1

OS:Construction,
  {4fddb6ea-9ec7-4766-a297-fa0a57ac4050}, ! Handle
  ASHRAE 90.1-2004 ExtRoof Metal ClimateZone 2, ! Name
  {1a370310-caf2-49a6-b0b0-c2614f5c60c0}, ! Surface Rendering Name
  {d30cb0ce-d7ae-493c-aa50-c3d54a61a5bc}, ! Layer 1
  {26a4645f-8e9a-4e94-a501-ee2d05d69c70}; ! Layer 2

OS:Construction,
  {04fe988c-5142-452c-bae4-09ab66dd374b}, ! Handle
  ASHRAE 90.1-2004 ExtRoof Metal ClimateZone 3-4, ! Name
  {ee3d676f-aaf2-42fd-a591-762614dd7c96}, ! Surface Rendering Name
  {d30cb0ce-d7ae-493c-aa50-c3d54a61a5bc}, ! Layer 1
  {8896e86b-7458-48a5-8b7e-e1537b27b8c7}; ! Layer 2

OS:Construction,
  {883c9b76-e8a5-4378-85bd-beb1ccb3186a}, ! Handle
  ASHRAE 90.1-2004 ExtRoof Metal ClimateZone 5-6, ! Name
  {abfd4a89-e3cd-4f26-96d2-49534938fd79}, ! Surface Rendering Name
  {d30cb0ce-d7ae-493c-aa50-c3d54a61a5bc}, ! Layer 1
  {681d4f6e-f970-4020-9360-786a446c227d}; ! Layer 2

OS:Construction,
  {308b4ba9-1ede-4e21-a494-98b402c90b4f}, ! Handle
  ASHRAE 90.1-2004 ExtRoof Metal ClimateZone 7, ! Name
  {78bb9add-56dd-4560-9821-390d677f489f}, ! Surface Rendering Name
  {d30cb0ce-d7ae-493c-aa50-c3d54a61a5bc}, ! Layer 1
  {8896e86b-7458-48a5-8b7e-e1537b27b8c7}; ! Layer 2

OS:Construction,
  {93792fe6-c7b4-4ed8-a0a1-8616a12cf242}, ! Handle
  ASHRAE 90.1-2004 ExtRoof Metal ClimateZone 8, ! Name
  {d1e0a86f-04a4-47ca-900d-5e7a3a2d6259}, ! Surface Rendering Name
  {d30cb0ce-d7ae-493c-aa50-c3d54a61a5bc}, ! Layer 1
  {71b51c1f-7ed8-4438-a6bb-eb3d79547ae4}; ! Layer 2

OS:Construction,
  {4f5e57de-2128-492e-9e06-9a2ef9775325}, ! Handle
  ASHRAE 90.1-2004 ExtWall Mass ClimateZone 1-2, ! Name
  {9d76060d-a988-46cb-b89d-81e4ff82ebf8}, ! Surface Rendering Name
  {3d6ad14a-e069-469e-905e-cdfda8b2190f}, ! Layer 1
  {b7e76fed-7e1c-425e-b13c-1cd3549c4b31}, ! Layer 2
  {255a4ef5-db6e-439f-ac4c-72af8d5360a2}; ! Layer 3

OS:Construction,
  {ea6f0359-e4d2-42b0-b845-5cdbdd41885a}, ! Handle
  ASHRAE 90.1-2004 ExtWall Mass ClimateZone 3-4, ! Name
  {58197eed-23ce-4975-ae33-58e6347a5303}, ! Surface Rendering Name
  {3d6ad14a-e069-469e-905e-cdfda8b2190f}, ! Layer 1
  {b7e76fed-7e1c-425e-b13c-1cd3549c4b31}, ! Layer 2
  {42404415-8838-4927-83b9-f3863e88e77b}, ! Layer 3
  {255a4ef5-db6e-439f-ac4c-72af8d5360a2}; ! Layer 4

OS:Construction,
  {24243965-169e-4a2f-b48a-8261fb1867c0}, ! Handle
  ASHRAE 90.1-2004 ExtWall Mass ClimateZone 5, ! Name
  {bad8ea15-3901-4ece-a321-27fbd87abd2c}, ! Surface Rendering Name
  {3d6ad14a-e069-469e-905e-cdfda8b2190f}, ! Layer 1
  {b7e76fed-7e1c-425e-b13c-1cd3549c4b31}, ! Layer 2
  {73d72a26-2668-4a4d-b0b5-ab041131cea0}, ! Layer 3
  {255a4ef5-db6e-439f-ac4c-72af8d5360a2}; ! Layer 4

OS:Construction,
  {d7f5cf6d-c213-4e78-a2a9-2211708f8415}, ! Handle
  ASHRAE 90.1-2004 ExtWall Mass ClimateZone 6, ! Name
  {08756858-fe45-4a83-9c41-d626bba64d53}, ! Surface Rendering Name
  {3d6ad14a-e069-469e-905e-cdfda8b2190f}, ! Layer 1
  {b7e76fed-7e1c-425e-b13c-1cd3549c4b31}, ! Layer 2
  {a725f5e1-5df5-4c39-a5c0-d9398749dae8}, ! Layer 3
  {255a4ef5-db6e-439f-ac4c-72af8d5360a2}; ! Layer 4

OS:Construction,
  {de826748-6e26-43b1-a748-057c2b60b17a}, ! Handle
  ASHRAE 90.1-2004 ExtWall Mass ClimateZone 7, ! Name
  {4c62c16e-26f6-4fdc-80c7-a455f0cdb6bd}, ! Surface Rendering Name
  {3d6ad14a-e069-469e-905e-cdfda8b2190f}, ! Layer 1
  {b7e76fed-7e1c-425e-b13c-1cd3549c4b31}, ! Layer 2
  {729f3d3c-8bf1-46bf-9285-5c9bec0dd98b}, ! Layer 3
  {255a4ef5-db6e-439f-ac4c-72af8d5360a2}; ! Layer 4

OS:Construction,
  {a7cc15ed-c5b6-4fdc-b854-10c4b273436b}, ! Handle
  ASHRAE 90.1-2004 ExtWall Mass ClimateZone 8, ! Name
  {1221d696-b720-47b5-ad81-58d8b6211428}, ! Surface Rendering Name
  {3d6ad14a-e069-469e-905e-cdfda8b2190f}, ! Layer 1
  {b7e76fed-7e1c-425e-b13c-1cd3549c4b31}, ! Layer 2
  {0239a1fc-502f-4de0-bbd9-468216041f0f}, ! Layer 3
  {255a4ef5-db6e-439f-ac4c-72af8d5360a2}; ! Layer 4

OS:Construction,
  {3b771d82-316f-4cf2-abe6-452b2436d337}, ! Handle
  ASHRAE 90.1-2004 ExtWall Mass ClimateZone alt-res 1-2, ! Name
  {2ad80dea-b236-44f9-a4b3-fe9e85f94fb0}, ! Surface Rendering Name
  {3d6ad14a-e069-469e-905e-cdfda8b2190f}, ! Layer 1
  {b7e76fed-7e1c-425e-b13c-1cd3549c4b31}, ! Layer 2
  {42404415-8838-4927-83b9-f3863e88e77b}, ! Layer 3
  {255a4ef5-db6e-439f-ac4c-72af8d5360a2}; ! Layer 4

OS:Construction,
  {7dbe168a-3640-4bb2-b0c4-35b662bec872}, ! Handle
  ASHRAE 90.1-2004 ExtWall Mass ClimateZone alt-res 3, ! Name
  {bfa5f677-03f3-4bbe-87a1-23d2815eeb24}, ! Surface Rendering Name
  {3d6ad14a-e069-469e-905e-cdfda8b2190f}, ! Layer 1
  {b7e76fed-7e1c-425e-b13c-1cd3549c4b31}, ! Layer 2
  {73d72a26-2668-4a4d-b0b5-ab041131cea0}, ! Layer 3
  {255a4ef5-db6e-439f-ac4c-72af8d5360a2}; ! Layer 4

OS:Construction,
  {3f6b4297-4f0b-424b-a39d-25b88d881e0e}, ! Handle
  ASHRAE 90.1-2004 ExtWall Mass ClimateZone alt-res 4, ! Name
  {19fb8a3b-a631-468d-9f6c-c9367f8df298}, ! Surface Rendering Name
  {3d6ad14a-e069-469e-905e-cdfda8b2190f}, ! Layer 1
  {b7e76fed-7e1c-425e-b13c-1cd3549c4b31}, ! Layer 2
  {a725f5e1-5df5-4c39-a5c0-d9398749dae8}, ! Layer 3
  {255a4ef5-db6e-439f-ac4c-72af8d5360a2}; ! Layer 4

OS:Construction,
  {6130bb03-3dd5-47dc-9773-584ed628edd5}, ! Handle
  ASHRAE 90.1-2004 ExtWall Mass ClimateZone alt-res 5-6, ! Name
  {96a467cd-d559-48c3-8cac-6a9e13592b96}, ! Surface Rendering Name
  {3d6ad14a-e069-469e-905e-cdfda8b2190f}, ! Layer 1
  {b7e76fed-7e1c-425e-b13c-1cd3549c4b31}, ! Layer 2
  {729f3d3c-8bf1-46bf-9285-5c9bec0dd98b}, ! Layer 3
  {255a4ef5-db6e-439f-ac4c-72af8d5360a2}; ! Layer 4

OS:Construction,
  {e0037225-9721-4768-90e8-396fe88a5cb8}, ! Handle
  ASHRAE 90.1-2004 ExtWall Mass ClimateZone alt-res 7, ! Name
  {e0eed4b5-2635-426f-8921-f8a90590e28d}, ! Surface Rendering Name
  {3d6ad14a-e069-469e-905e-cdfda8b2190f}, ! Layer 1
  {b7e76fed-7e1c-425e-b13c-1cd3549c4b31}, ! Layer 2
  {0239a1fc-502f-4de0-bbd9-468216041f0f}, ! Layer 3
  {255a4ef5-db6e-439f-ac4c-72af8d5360a2}; ! Layer 4

OS:Construction,
  {c2245b0c-11a4-463a-a523-b8c7deda8826}, ! Handle
  ASHRAE 90.1-2004 ExtWall Mass ClimateZone alt-res 8, ! Name
  {907c0b02-da6e-42f0-93a5-e6d0cad0296c}, ! Surface Rendering Name
  {3d6ad14a-e069-469e-905e-cdfda8b2190f}, ! Layer 1
  {b7e76fed-7e1c-425e-b13c-1cd3549c4b31}, ! Layer 2
  {90ede532-047b-4c59-9114-05f6ad94c6d6}, ! Layer 3
  {255a4ef5-db6e-439f-ac4c-72af8d5360a2}; ! Layer 4

OS:Construction,
  {712cfda4-2343-4716-b5c9-739067d0efb1}, ! Handle
  ASHRAE 90.1-2004 ExtWall Metal ClimateZone 1, ! Name
  {955c8b29-4650-4edd-9bd5-1db7cecf7ce6}, ! Surface Rendering Name
  {46c70248-029b-4852-82d6-795368e0546b}, ! Layer 1
  {255a4ef5-db6e-439f-ac4c-72af8d5360a2}; ! Layer 2

OS:Construction,
  {c262d425-2af6-45f6-959f-edefce8c3c32}, ! Handle
  ASHRAE 90.1-2004 ExtWall Metal ClimateZone 2-3, ! Name
  {1b685b4a-2b6c-4eee-a8ad-2f6ecaddc851}, ! Surface Rendering Name
  {46c70248-029b-4852-82d6-795368e0546b}, ! Layer 1
  {85fcc8ff-4d97-4f0f-b8a9-6afe12e841ff}, ! Layer 2
  {255a4ef5-db6e-439f-ac4c-72af8d5360a2}; ! Layer 3

OS:Construction,
  {7ccfbaa0-3463-4a54-95ee-42e5aba41778}, ! Handle
  ASHRAE 90.1-2004 ExtWall Metal ClimateZone 4, ! Name
  {a9d1580c-c14d-4620-ae54-a5c05c9ddf65}, ! Surface Rendering Name
  {46c70248-029b-4852-82d6-795368e0546b}, ! Layer 1
  {fc901d26-350d-430f-9077-4eb93574c4ae}, ! Layer 2
  {255a4ef5-db6e-439f-ac4c-72af8d5360a2}; ! Layer 3

OS:Construction,
  {3c8a43f7-78e1-4e79-bc55-ad61d37168ad}, ! Handle
  ASHRAE 90.1-2004 ExtWall Metal ClimateZone 5, ! Name
  {62a4933d-b636-4fc3-819c-e16545aaec7b}, ! Surface Rendering Name
  {46c70248-029b-4852-82d6-795368e0546b}, ! Layer 1
  {c81295d4-b10d-4d10-a81b-dd5210695b71}, ! Layer 2
  {255a4ef5-db6e-439f-ac4c-72af8d5360a2}; ! Layer 3

OS:Construction,
  {0ba02481-9dd4-432b-aa8c-a168cec813c5}, ! Handle
  ASHRAE 90.1-2004 ExtWall Metal ClimateZone 6-8, ! Name
  {02da049a-42a0-40f6-8a94-85f6442b8486}, ! Surface Rendering Name