
OS:Version,
  {085ee94b-884b-4762-a59c-8b28d9c4d71b}, !- Handle
  2.3.0;                                  !- Version Identifier

OS:Construction,
  {efc9fc27-e37f-477e-af23-81e811e00e6a}, !- Handle
  ASHRAE 189.1-2009 AtticFloor ClimateZone 1-8, !- Name
  ,                                       !- Surface Rendering Name
  {1f8168bb-9d2b-4a0e-a6e2-e055341e9067}, !- Layer 1
  {4cc4b89c-d9fc-4fde-9768-ad974d58cf8f}, !- Layer 2
  {1f8168bb-9d2b-4a0e-a6e2-e055341e9067}; !- Layer 3

OS:StandardsInformation:Construction,
  {2545d93b-a530-4866-92cf-8ff8c07d9ece}, !- Handle
  {efc9fc27-e37f-477e-af23-81e811e00e6a}, !- Construction Name
  AtticFloor,                             !- Intended Surface Type
  WoodFramed,                             !- Standards Construction Type
  ,                                       !- Perturbable Layer
  ,                                       !- Perturbable Layer Type
  ,                                       !- Other Perturbable Layer Type
  ASHRAE 189.1-2009;                      !- Construction Standard

OS:Material,
  {1f8168bb-9d2b-4a0e-a6e2-e055341e9067}, !- Handle
  1/2IN Gypsum,                           !- Name
  Smooth,                                 !- Roughness
  0.0127,                                 !- Thickness {m}
  0.16,                                   !- Conductivity {W/m-K}
  784.9,                                  !- Density {kg/m3}
  830.000000000001,                       !- Specific Heat {J/kg-K}
  0.9,                                    !- Thermal Absorptance
  0.4,                                    !- Solar Absorptance
  0.4;                                    !- Visible Absorptance

OS:StandardsInformation:Material,
  {803e080e-b063-42fb-a400-67c640de77a6}, !- Handle
  {1f8168bb-9d2b-4a0e-a6e2-e055341e9067}; !- Material Name

OS:Material,
  {4cc4b89c-d9fc-4fde-9768-ad974d58cf8f}, !- Handle
  AtticFloor Insulation,                  !- Name
  MediumRough,                            !- Roughness
  0.2379,                                 !- Thickness {m}
  0.049,                                  !- Conductivity {W/m-K}
  265,                                    !- Density {kg/m3}
  836.800000000001,                       !- Specific Heat {J/kg-K}
  0.9,                                    !- Thermal Absorptance
  0.7,                                    !- Solar Absorptance
  0.7;                                    !- Visible Absorptance

OS:StandardsInformation:Material,
  {b01331ba-f273-4d00-9578-8e2dfd8d56c8}, !- Handle
  {4cc4b89c-d9fc-4fde-9768-ad974d58cf8f}; !- Material Name

OS:Construction,
  {70e6ca3b-6033-4d17-a0b5-ab63b675d20f}, !- Handle
  ASHRAE 189.1-2009 ExtRoof IEAD ClimateZone 1, !- Name
  ,                                       !- Surface Rendering Name
  {7797d724-a5b0-4516-89e0-8a389fc9395f}, !- Layer 1
  {bbe8cb9a-b2db-4d99-bebd-b7a1b2a67e46}, !- Layer 2
  {3532a263-b78b-4fac-8ea8-a7877876ba70}; !- Layer 3

OS:StandardsInformation:Construction,
  {2e9afb22-0f2d-493e-9323-50f13ff863bf}, !- Handle
  {70e6ca3b-6033-4d17-a0b5-ab63b675d20f}, !- Construction Name
  ExteriorRoof,                           !- Intended Surface Type
  IEAD,                                   !- Standards Construction Type
  ,                                       !- Perturbable Layer
  ,                                       !- Perturbable Layer Type
  ,                                       !- Other Perturbable Layer Type
  ASHRAE 189.1-2009;                      !- Construction Standard

OS:Material,
  {7797d724-a5b0-4516-89e0-8a389fc9395f}, !- Handle
  Roof Membrane,                          !- Name
  VeryRough,                              !- Roughness
  0.0095,                                 !- Thickness {m}
  0.16,                                   !- Conductivity {W/m-K}
  1121.29,                                !- Density {kg/m3}
  1460,                                   !- Specific Heat {J/kg-K}
  0.9,                                    !- Thermal Absorptance
  0.7,                                    !- Solar Absorptance
  0.7;                                    !- Visible Absorptance

OS:StandardsInformation:Material,
  {5dc11d70-d322-4c5f-bf83-82c7171f111b}, !- Handle
  {7797d724-a5b0-4516-89e0-8a389fc9395f}; !- Material Name

OS:Material,
  {bbe8cb9a-b2db-4d99-bebd-b7a1b2a67e46}, !- Handle
  Roof Insulation [18],                   !- Name
  MediumRough,                            !- Roughness
  0.1693,                                 !- Thickness {m}
  0.049,                                  !- Conductivity {W/m-K}
  265,                                    !- Density {kg/m3}
  836.800000000001,                       !- Specific Heat {J/kg-K}
  0.9,                                    !- Thermal Absorptance
  0.7,                                    !- Solar Absorptance
  0.7;                                    !- Visible Absorptance

OS:StandardsInformation:Material,
  {2fd835a0-43dd-4b91-b41a-db4e8e773dd8}, !- Handle
  {bbe8cb9a-b2db-4d99-bebd-b7a1b2a67e46}; !- Material Name

OS:Material,
  {3532a263-b78b-4fac-8ea8-a7877876ba70}, !- Handle
  Metal Decking,                          !- Name
  MediumSmooth,                           !- Roughness
  0.0015,                                 !- Thickness {m}
  45.006,                                 !- Conductivity {W/m-K}
  7680,                                   !- Density {kg/m3}
  418.4,                                  !- Specific Heat {J/kg-K}
  0.9,                                    !- Thermal Absorptance
  0.6,                                    !- Solar Absorptance
  0.6;                                    !- Visible Absorptance

OS:StandardsInformation:Material,
  {b9027a33-867e-4617-9d25-531c0dbb4cfd}, !- Handle
  {3532a263-b78b-4fac-8ea8-a7877876ba70}; !- Material Name

OS:Construction,
  {bd68f6d5-83d0-4c24-90f7-4eb28fd75e71}, !- Handle
  ASHRAE 189.1-2009 ExtRoof IEAD ClimateZone 2-5, !- Name
  ,                                       !- Surface Rendering Name
  {7797d724-a5b0-4516-89e0-8a389fc9395f}, !- Layer 1
  {16801c5b-c586-4265-aed4-af5e718bc341}, !- Layer 2
  {3532a263-b78b-4fac-8ea8-a7877876ba70}; !- Layer 3

OS:StandardsInformation:Construction,
  {aec6efc0-4d05-4169-9824-f1ec512f0cbd}, !- Handle
  {bd68f6d5-83d0-4c24-90f7-4eb28fd75e71}, !- Construction Name
  ExteriorRoof,                           !- Intended Surface Type
  IEAD,                                   !- Standards Construction Type
  ,                                       !- Perturbable Layer
  ,                                       !- Perturbable Layer Type
  ,                                       !- Other Perturbable Layer Type
  ASHRAE 189.1-2009;                      !- Construction Standard

OS:Material,
  {16801c5b-c586-4265-aed4-af5e718bc341}, !- Handle
  Roof Insulation [21],                   !- Name
  MediumRough,                            !- Roughness
  0.2105,                                 !- Thickness {m}
  0.049,                                  !- Conductivity {W/m-K}
  265,                                    !- Density {kg/m3}
  836.800000000001,                       !- Specific Heat {J/kg-K}
  0.9,                                    !- Thermal Absorptance
  0.7,                                    !- Solar Absorptance
  0.7;                                    !- Visible Absorptance

OS:StandardsInformation:Material,
  {6d317c07-5202-4a0c-a4f3-974afba914e6}, !- Handle
  {16801c5b-c586-4265-aed4-af5e718bc341}; !- Material Name

OS:Construction,
  {56fd77c5-39e1-48f8-8ca0-ca5982ff5297}, !- Handle
  ASHRAE 189.1-2009 ExtRoof IEAD ClimateZone 6, !- Name
  ,                                       !- Surface Rendering Name
  {7797d724-a5b0-4516-89e0-8a389fc9395f}, !- Layer 1
  {ab129b78-d134-4f99-90b2-48a8eb7ac33c}, !- Layer 2
  {3532a263-b78b-4fac-8ea8-a7877876ba70}; !- Layer 3

OS:StandardsInformation:Construction,
  {12cad98e-2ccf-4bf1-94a8-574372646adf}, !- Handle
  {56fd77c5-39e1-48f8-8ca0-ca5982ff5297}, !- Construction Name
  ExteriorRoof,                           !- Intended Surface Type
  IEAD,                                   !- Standards Construction Type
  ,                                       !- Perturbable Layer
  ,                                       !- Perturbable Layer Type
  ,                                       !- Other Perturbable Layer Type
  ASHRAE 189.1-2009;                      !- Construction Standard

OS:Material,
  {ab129b78-d134-4f99-90b2-48a8eb7ac33c}, !- Handle
  Roof Insulation [24],                   !- Name
  MediumRough,                            !- Roughness
  0.260100000000001,                      !- Thickness {m}
  0.049,                                  !- Conductivity {W/m-K}
  265,                                    !- Density {kg/m3}
  836.800000000001,                       !- Specific Heat {J/kg-K}
  0.9,                                    !- Thermal Absorptance
  0.7,                                    !- Solar Absorptance
  0.7;                                    !- Visible Absorptance

OS:StandardsInformation:Material,
  {eadd133b-add8-4e56-b8ce-5adf8a558d60}, !- Handle
  {ab129b78-d134-4f99-90b2-48a8eb7ac33c}; !- Material Name

OS:Construction,
  {6034d56e-3b4b-48a8-9341-f246b4132be1}, !- Handle
  ASHRAE 189.1-2009 ExtRoof IEAD ClimateZone 7-8, !- Name
  ,                                       !- Surface Rendering Name
  {7797d724-a5b0-4516-89e0-8a389fc9395f}, !- Layer 1
  {ffcb00e1-084d-40b3-8657-01b998e9370a}, !- Layer 2
  {3532a263-b78b-4fac-8ea8-a7877876ba70}; !- Layer 3

OS:StandardsInformation:Construction,
  {4422a616-c750-41ff-8424-497220eee792}, !- Handle
  {6034d56e-3b4b-48a8-9341-f246b4132be1}, !- Construction Name
  ExteriorRoof,                           !- Intended Surface Type
  IEAD,                                   !- Standards Construction Type
  ,                                       !- Perturbable Layer
  ,                                       !- Perturbable Layer Type
  ,                                       !- Other Perturbable Layer Type
  ASHRAE 189.1-2009;                      !- Construction Standard

OS:Material,
  {ffcb00e1-084d-40b3-8657-01b998e9370a}, !- Handle
  Roof Insulation [26],                   !- Name
  MediumRough,                            !- Roughness
  0.2941,                                 !- Thickness {m}
  0.049,                                  !- Conductivity {W/m-K}
  265,                                    !- Density {kg/m3}
  836.800000000001,                       !- Specific Heat {J/kg-K}
  0.9,                                    !- Thermal Absorptance
  0.7,                                    !- Solar Absorptance
  0.7;                                    !- Visible Absorptance

OS:StandardsInformation:Material,
  {138dbcd8-988a-4607-b94d-22899c625824}, !- Handle
  {ffcb00e1-084d-40b3-8657-01b998e9370a}; !- Material Name

OS:Construction,
  {3cf8829b-2aaa-41bf-bd50-874d05e7e251}, !- Handle
  ASHRAE 189.1-2009 ExtRoof Metal ClimateZone 1, !- Name
  ,                                       !- Surface Rendering Name
  {f330c429-672c-4fcb-86b3-bfac7026053e}, !- Layer 1
  {d6b42f23-b369-45f5-9d07-c9f6a705b49c}, !- Layer 2
  {3532a263-b78b-4fac-8ea8-a7877876ba70}; !- Layer 3

OS:StandardsInformation:Construction,
  {4ae48fa6-a9d0-4f8f-a9be-d4845c10807b}, !- Handle
  {3cf8829b-2aaa-41bf-bd50-874d05e7e251}, !- Construction Name
  ExteriorRoof,                           !- Intended Surface Type
  Metal,                                  !- Standards Construction Type
  ,                                       !- Perturbable Layer
  ,                                       !- Perturbable Layer Type
  ,                                       !- Other Perturbable Layer Type
  ASHRAE 189.1-2009;                      !- Construction Standard

OS:Material,
  {f330c429-672c-4fcb-86b3-bfac7026053e}, !- Handle
  Metal Roofing,                          !- Name
  MediumSmooth,                           !- Roughness
  0.0015,                                 !- Thickness {m}
  45.006,                                 !- Conductivity {W/m-K}
  7680,                                   !- Density {kg/m3}
  418.4,                                  !- Specific Heat {J/kg-K}
  0.9,                                    !- Thermal Absorptance
  0.6,                                    !- Solar Absorptance
  0.6;                                    !- Visible Absorptance

OS:StandardsInformation:Material,
  {a84a70ec-8086-40e0-a337-e8724c8d3165}, !- Handle
  {f330c429-672c-4fcb-86b3-bfac7026053e}; !- Material Name

OS:Material,
  {d6b42f23-b369-45f5-9d07-c9f6a705b49c}, !- Handle
  Roof Insulation [19],                   !- Name
  MediumRough,                            !- Roughness
  0.1868,                                 !- Thickness {m}
  0.049,                                  !- Conductivity {W/m-K}
  265,                                    !- Density {kg/m3}
  836.800000000001,                       !- Specific Heat {J/kg-K}
  0.9,                                    !- Thermal Absorptance
  0.7,                                    !- Solar Absorptance
  0.7;                                    !- Visible Absorptance

OS:StandardsInformation:Material,
  {1e2d4aa4-a8ea-4ead-aa92-43cafb7505d1}, !- Handle
  {d6b42f23-b369-45f5-9d07-c9f6a705b49c}; !- Material Name

OS:Construction,
  {9f67312c-3a93-4747-865d-faae0137fd9c}, !- Handle
  ASHRAE 189.1-2009 ExtRoof Metal ClimateZone 2-5, !- Name
  ,                                       !- Surface Rendering Name
  {f330c429-672c-4fcb-86b3-bfac7026053e}, !- Layer 1
  {41e201b7-0d30-4b65-a32d-64a2be08a140}, !- Layer 2
  {3532a263-b78b-4fac-8ea8-a7877876ba70}; !- Layer 3

OS:StandardsInformation:Construction,
  {056e3b59-18c4-4fc5-b35d-8ba1e1e01662}, !- Handle
  {9f67312c-3a93-4747-865d-faae0137fd9c}, !- Construction Name
  ExteriorRoof,                           !- Intended Surface Type
  Metal,                                  !- Standards Construction Type
  ,                                       !- Perturbable Layer
  ,                                       !- Perturbable Layer Type
  ,                                       !- Other Perturbable Layer Type
  ASHRAE 189.1-2009;                      !- Construction Standard

OS:Material,
  {41e201b7-0d30-4b65-a32d-64a2be08a140}, !- Handle
  Roof Insulation [22],                   !- Name
  MediumRough,                            !- Roughness
  0.2358,                                 !- Thickness {m}
  0.049,                                  !- Conductivity {W/m-K}
  265,                                    !- Density {kg/m3}
  836.800000000001,                       !- Specific Heat {J/kg-K}
  0.9,                                    !- Thermal Absorptance
  0.7,                                    !- Solar Absorptance
  0.7;                                    !- Visible Absorptance

OS:StandardsInformation:Material,
  {b7b67a1f-27e1-4571-9cb6-dbad03a985b5}, !- Handle
  {41e201b7-0d30-4b65-a32d-64a2be08a140}; !- Material Name

OS:Construction,
  {cbbaac2c-d53d-4121-b9b2-0196cc3f63dc}, !- Handle
  ASHRAE 189.1-2009 ExtRoof Metal ClimateZone 6, !- Name
  ,                                       !- Surface Rendering Name
  {f330c429-672c-4fcb-86b3-bfac7026053e}, !- Layer 1
  {ad9cb9d9-7777-4b51-be11-889c60716419}, !- Layer 2
  {3532a263-b78b-4fac-8ea8-a7877876ba70}; !- Layer 3

OS:StandardsInformation:Construction,
  {053383ea-df50-4c75-92d6-28e61bea4d59}, !- Handle
  {cbbaac2c-d53d-4121-b9b2-0196cc3f63dc}, !- Construction Name
  ExteriorRoof,                           !- Intended Surface Type
  Metal,                                  !- Standards Construction Type
  ,                                       !- Perturbable Layer
  ,                                       !- Perturbable Layer Type
  ,                                       !- Other Perturbable Layer Type
  ASHRAE 189.1-2009;                      !- Construction Standard

OS:Material,
  {ad9cb9d9-7777-4b51-be11-889c60716419}, !- Handle
  Roof Insulation [25],                   !- Name
  MediumRough,                            !- Roughness
  0.263,                                  !- Thickness {m}
  0.049,                                  !- Conductivity {W/m-K}
  265,                                    !- Density {kg/m3}
  836.800000000001,                       !- Specific Heat {J/kg-K}
  0.9,                                    !- Thermal Absorptance
  0.7,                                    !- Solar Absorptance
  0.7;                                    !- Visible Absorptance

OS:StandardsInformation:Material,
  {46baf2ca-f152-4a06-89b5-336480f9410d}, !- Handle
  {ad9cb9d9-7777-4b51-be11-889c60716419}; !- Material Name

OS:Construction,
  {b17f0c76-08d1-4800-966a-327b325902de}, !- Handle
  ASHRAE 189.1-2009 ExtRoof Metal ClimateZone 7-8, !- Name
  ,                                       !- Surface Rendering Name
  {f330c429-672c-4fcb-86b3-bfac7026053e}, !- Layer 1
  {8943bc2e-6d0b-416f-93d3-5cd9a6616baf}, !- Layer 2
  {3532a263-b78b-4fac-8ea8-a7877876ba70}; !- Layer 3

OS:StandardsInformation:Construction,
  {49fc83a5-1ba3-4a8b-ba4e-713acf67e345}, !- Handle
  {b17f0c76-08d1-4800-966a-327b325902de}, !- Construction Name
  ExteriorRoof,                           !- Intended Surface Type
  Metal,                                  !- Standards Construction Type
  ,                                       !- Perturbable Layer
  ,                                       !- Perturbable Layer Type
  ,                                       !- Other Perturbable Layer Type
  ASHRAE 189.1-2009;                      !- Construction Standard

OS:Material,
  {8943bc2e-6d0b-416f-93d3-5cd9a6616baf}, !- Handle
  Roof Insulation [27],                   !- Name
  MediumRough,                            !- Roughness
  0.297000000000001,                      !- Thickness {m}
  0.049,                                  !- Conductivity {W/m-K}
  265,                                    !- Density {kg/m3}
  836.800000000001,                       !- Specific Heat {J/kg-K}
  0.9,                                    !- Thermal Absorptance
  0.7,                                    !- Solar Absorptance
  0.7;                                    !- Visible Absorptance

OS:StandardsInformation:Material,
  {3856dbdf-a6ba-4559-b6e8-f658170400f2}, !- Handle
  {8943bc2e-6d0b-416f-93d3-5cd9a6616baf}; !- Material Name

OS:Construction,
  {550891f7-119c-4759-b301-f2fadf31c2bb}, !- Handle
  ASHRAE 189.1-2009 ExtWall Mass ClimateZone 1, !- Name
  ,                                       !- Surface Rendering Name
  {8b68c930-ac3a-4526-b419-63d237a166c4}, !- Layer 1
  {fa517cef-fa58-46e8-b956-fbb03db99fa6}, !- Layer 2
  {bb9242f6-200a-439a-9e10-6cd1e23a79be}, !- Layer 3
  {1f8168bb-9d2b-4a0e-a6e2-e055341e9067}; !- Layer 4

OS:StandardsInformation:Construction,
  {4a4b2459-d12f-4539-b603-7e7b61b800d7}, !- Handle
  {550891f7-119c-4759-b301-f2fadf31c2bb}, !- Construction Name
  ExteriorWall,                           !- Intended Surface Type
  Mass,                                   !- Standards Construction Type
  ,                                       !- Perturbable Layer
  ,                                       !- Perturbable Layer Type
  ,                                       !- Other Perturbable Layer Type
  ASHRAE 189.1-2009;                      !- Construction Standard

OS:Material,
  {8b68c930-ac3a-4526-b419-63d237a166c4}, !- Handle
  1IN Stucco,                             !- Name
  Smooth,                                 !- Roughness
  0.0253,                                 !- Thickness {m}
  0.691799999999999,                      !- Conductivity {W/m-K}
  1858,                                   !- Density {kg/m3}
  836.999999999999,                       !- Specific Heat {J/kg-K}
  0.9,                                    !- Thermal Absorptance
  0.92,                                   !- Solar Absorptance
  0.92;                                   !- Visible Absorptance

OS:StandardsInformation:Material,
  {401aeb73-b8ae-47c5-b267-64ceda81da57}, !- Handle
  {8b68c930-ac3a-4526-b419-63d237a166c4}; !- Material Name

OS:Material,
  {fa517cef-fa58-46e8-b956-fbb03db99fa6}, !- Handle
  8IN Concrete HW,                        !- Name
  MediumRough,                            !- Roughness
  0.2033,                                 !- Thickness {m}
  1.72959999999999,                       !- Conductivity {W/m-K}
  2242.99999999999,                       !- Density {kg/m3}
  836.999999999999,                       !- Specific Heat {J/kg-K}
  0.9,                                    !- Thermal Absorptance
  0.65,                                   !- Solar Absorptance
  0.65;                                   !- Visible Absorptance

OS:StandardsInformation:Material,
  {26d7ba09-bad0-42df-88b8-6bd28c854e16}, !- Handle
  {fa517cef-fa58-46e8-b956-fbb03db99fa6}; !- Material Name

OS:Material,
  {bb9242f6-200a-439a-9e10-6cd1e23a79be}, !- Handle
  Wall Insulation [31],                   !- Name
  MediumRough,                            !- Roughness
  0.0337000000000001,                     !- Thickness {m}
  0.0432,                                 !- Conductivity {W/m-K}
  91,                                     !- Density {kg/m3}
  836.999999999999,                       !- Specific Heat {J/kg-K}
  0.9,                                    !- Thermal Absorptance
  0.5,                                    !- Solar Absorptance
  0.5;                                    !- Visible Absorptance

OS:StandardsInformation:Material,
  {31611cbd-556f-4cde-a115-8a9a0fbeb316}, !- Handle
  {bb9242f6-200a-439a-9e10-6cd1e23a79be}; !- Material Name

OS:Construction,
  {95f61f00-6c52-4d69-91dc-37dbc9328c10}, !- Handle
  ASHRAE 189.1-2009 ExtWall Mass ClimateZone 2, !- Name
  ,                                       !- Surface Rendering Name
  {8b68c930-ac3a-4526-b419-63d237a166c4}, !- Layer 1
  {fa517cef-fa58-46e8-b956-fbb03db99fa6}, !- Layer 2
  {491a472f-4f5b-458e-98a3-e31c7b8103c4}, !- Layer 3
  {1f8168bb-9d2b-4a0e-a6e2-e055341e9067}; !- Layer 4

OS:StandardsInformation:Construction,
  {1c2ec933-8848-4b4f-9779-ebfabfe1c0e5}, !- Handle
  {95f61f00-6c52-4d69-91dc-37dbc9328c10}, !- Construction Name
  ExteriorWall,                           !- Intended Surface Type
  Mass,                                   !- Standards Construction Type
  ,                                       !- Perturbable Layer
  ,                                       !- Perturbable Layer Type
  ,                                       !- Other Perturbable Layer Type
  ASHRAE 189.1-2009;                      !- Construction Standard

OS:Material,
  {491a472f-4f5b-458e-98a3-e31c7b8103c4}, !- Handle
  Wall Insulation [35],                   !- Name
  MediumRough,                            !- Roughness
  0.0452,                                 !- Thickness {m}
  0.0432,                                 !- Conductivity {W/m-K}
  91,                                     !- Density {kg/m3}
  836.999999999999,                       !- Specific Heat {J/kg-K}
  0.9,                                    !- Thermal Absorptance
  0.5,                                    !- Solar Absorptance
  0.5;                                    !- Visible Absorptance

OS:StandardsInformation:Material,
  {257d6a21-bc58-4667-a0ff-56d3ad1585b1}, !- Handle
  {491a472f-4f5b-458e-98a3-e31c7b8103c4}; !- Material Name

OS:Construction,
  {a03e7c19-d181-41df-9380-768325254f35}, !- Handle
  ASHRAE 189.1-2009 ExtWall Mass ClimateZone 3, !- Name
  ,                                       !- Surface Rendering Name
  {8b68c930-ac3a-4526-b419-63d237a166c4}, !- Layer 1
  {fa517cef-fa58-46e8-b956-fbb03db99fa6}, !- Layer 2
  {36ff9ed5-e126-40e7-bc11-4e8e5cee9a63}, !- Layer 3
  {1f8168bb-9d2b-4a0e-a6e2-e055341e9067}; !- Layer 4

OS:StandardsInformation:Construction,
  {7f31b440-4c4e-4988-9615-9e4cbbb9c1e1}, !- Handle
  {a03e7c19-d181-41df-9380-768325254f35}, !- Construction Name
  ExteriorWall,                           !- Intended Surface Type
  Mass,                                   !- Standards Construction Type
  ,                                       !- Perturbable Layer
  ,                                       !- Perturbable Layer Type
  ,                                       !- Other Perturbable Layer Type
  ASHRAE 189.1-2009;                      !- Construction Standard

OS:Material,
  {36ff9ed5-e126-40e7-bc11-4e8e5cee9a63}, !- Handle
  Wall Insulation [36],                   !- Name
  MediumRough,                            !- Roughness
  0.0565999999999999,                     !- Thickness {m}
  0.0432,                                 !- Conductivity {W/m-K}
  91,                                     !- Density {kg/m3}
  836.999999999999,                       !- Specific Heat {J/kg-K}
  0.9,                                    !- Thermal Absorptance
  0.5,                                    !- Solar Absorptance
  0.5;                                    !- Visible Absorptance

OS:StandardsInformation:Material,
  {6f7bb49c-79f3-4837-9ccb-f1c285a9c7c9}, !- Handle
  {36ff9ed5-e126-40e7-bc11-4e8e5cee9a63}; !- Material Name

OS:Construction,
  {5f0c637a-c2d2-4ffa-aef1-b0ddaf0c4bb9}, !- Handle
  ASHRAE 189.1-2009 ExtWall Mass ClimateZone 4, !- Name
  ,                                       !- Surface Rendering Name
  {8b68c930-ac3a-4526-b419-63d237a166c4}, !- Layer 1
  {fa517cef-fa58-46e8-b956-fbb03db99fa6}, !- Layer 2
  {4471a452-0e6a-4923-bac8-5ecfcc717a33}, !- Layer 3
  {1f8168bb-9d2b-4a0e-a6e2-e055341e9067}; !- Layer 4

OS:StandardsInformation:Construction,
  {f8164245-c446-4c30-89ec-7df2e3df1dcc}, !- Handle
  {5f0c637a-c2d2-4ffa-aef1-b0ddaf0c4bb9}, !- Construction Name
  ExteriorWall,                           !- Intended Surface Type
  Mass,                                   !- Standards Construction Type
  ,                                       !- Perturbable Layer
  ,                                       !- Perturbable Layer Type
  ,                                       !- Other Perturbable Layer Type
  ASHRAE 189.1-2009;                      !- Construction Standard

OS:Material,
  {4471a452-0e6a-4923-bac8-5ecfcc717a33}, !- Handle
  Wall Insulation [37],                   !- Name
  MediumRough,                            !- Roughness
  0.0680999999999999,                     !- Thickness {m}
  0.0432,                                 !- Conductivity {W/m-K}
  91,                                     !- Density {kg/m3}
  836.999999999999,                       !- Specific Heat {J/kg-K}
  0.9,                                    !- Thermal Absorptance
  0.5,                                    !- Solar Absorptance
  0.5;                                    !- Visible Absorptance

OS:StandardsInformation:Material,
  {6d0eee08-a7c8-4ee7-aaad-131f6f838519}, !- Handle
  {4471a452-0e6a-4923-bac8-5ecfcc717a33}; !- Material Name

OS:Construction,
  {8687fb3e-4e13-4d00-b2ad-53d6a3e62308}, !- Handle
  ASHRAE 189.1-2009 ExtWall Mass ClimateZone 5, !- Name
  ,                                       !- Surface Rendering Name
  {8b68c930-ac3a-4526-b419-63d237a166c4}, !- Layer 1
  {fa517cef-fa58-46e8-b956-fbb03db99fa6}, !- Layer 2
  {70f535d1-938f-49f5-824d-ea8907272f54}, !- Layer 3
  {1f8168bb-9d2b-4a0e-a6e2-e055341e9067}; !- Layer 4

OS:StandardsInformation:Construction,
  {951bbd36-d2f1-4611-b3cd-31cb32550000}, !- Handle
  {8687fb3e-4e13-4d00-b2ad-53d6a3e62308}, !- Construction Name
  ExteriorWall,                           !- Intended Surface Type
  Mass,                                   !- Standards Construction Type
  ,                                       !- Perturbable Layer
  ,                                       !- Perturbable Layer Type
  ,                                       !- Other Perturbable Layer Type
  ASHRAE 189.1-2009;                      !- Construction Standard

OS:Material,
  {70f535d1-938f-49f5-824d-ea8907272f54}, !- Handle
  Wall Insulation [40],                   !- Name
  MediumRough,                            !- Roughness
  0.0793999999999999,                     !- Thickness {m}
  0.0432,                                 !- Conductivity {W/m-K}
  91,                                     !- Density {kg/m3}
  836.999999999999,                       !- Specific Heat {J/kg-K}
  0.9,                                    !- Thermal Absorptance
  0.5,                                    !- Solar Absorptance
  0.5;                                    !- Visible Absorptance

OS:StandardsInformation:Material,
  {a160dc3e-53eb-48e9-810a-51f02ed1f7d2}, !- Handle
  {70f535d1-938f-49f5-824d-ea8907272f54}; !- Material Name

OS:Construction,
  {f84236ff-6c58-40c7-bc8b-060678565d7c}, !- Handle
  ASHRAE 189.1-2009 ExtWall Mass ClimateZone 6, !- Name
  ,                                       !- Surface Rendering Name
  {8b68c930-ac3a-4526-b419-63d237a166c4}, !- Layer 1
  {fa517cef-fa58-46e8-b956-fbb03db99fa6}, !- Layer 2
  {fb526bff-3113-41a4-80bd-8b056824e4c0}, !- Layer 3
  {1f8168bb-9d2b-4a0e-a6e2-e055341e9067}; !- Layer 4

OS:StandardsInformation:Construction,
  {a0c54675-0c3a-458f-87ac-0340e8dd3c4e}, !- Handle
  {f84236ff-6c58-40c7-bc8b-060678565d7c}, !- Construction Name
  ExteriorWall,                           !- Intended Surface Type
  Mass,                                   !- Standards Construction Type
  ,                                       !- Perturbable Layer
  ,                                       !- Perturbable Layer Type
  ,                                       !- Other Perturbable Layer Type
  ASHRAE 189.1-2009;                      !- Construction Standard

OS:Material,
  {fb526bff-3113-41a4-80bd-8b056824e4c0}, !- Handle
  Wall Insulation [42],                   !- Name
  MediumRough,                            !- Roughness
  0.0913999999999999,                     !- Thickness {m}
  0.0432,                                 !- Conductivity {W/m-K}
  91,                                     !- Density {kg/m3}
  836.999999999999,                       !- Specific Heat {J/kg-K}