
OS:Version,
  {a50d5434-b563-45fc-a13e-90f895d6d481}, !- Handle
  1.3.0;                                  !- Version Identifier

OS:Construction,
  {55c931ac-0731-482c-9364-6e58ce599d4c}, !- Handle
  ASHRAE 189.1-2009 AtticFloor ClimateZone 1-8, !- Name
  ,                                       !- Surface Rendering Name
  {eba8a3f9-c02f-4f9f-9904-d9662c21d2f5}, !- Layer 1
  {9af57920-5cee-4978-ac45-6b9eef20b8fd}, !- Layer 2
  {eba8a3f9-c02f-4f9f-9904-d9662c21d2f5}; !- Layer 3

OS:StandardsInformation:Construction,
  {428dcc53-59ea-45fa-a16f-9010157603e1}, !- Handle
  {55c931ac-0731-482c-9364-6e58ce599d4c}, !- Construction Name
  AtticFloor,                             !- Intended Surface Type
  WoodFramed;                             !- Standards Construction Type

OS:Material,
  {eba8a3f9-c02f-4f9f-9904-d9662c21d2f5}, !- Handle
  1/2IN Gypsum,                           !- Name
  Smooth,                                 !- Roughness
  0.0127,                                 !- Thickness {m}
  0.16,                                   !- Conductivity {W/m-K}
  784.9,                                  !- Density {kg/m3}
  830.000000000001,                       !- Specific Heat {J/kg-K}
  0.9,                                    !- Thermal Absorptance
  0.92,                                   !- Solar Absorptance
  0.92;                                   !- Visible Absorptance

OS:Material,
  {9af57920-5cee-4978-ac45-6b9eef20b8fd}, !- Handle
  AtticFloor Insulation,                  !- Name
  MediumRough,                            !- Roughness
  0.2379,                                 !- Thickness {m}
  0.049,                                  !- Conductivity {W/m-K}
  265,                                    !- Density {kg/m3}
  836.800000000001,                       !- Specific Heat {J/kg-K}
  0.9,                                    !- Thermal Absorptance
  0.7,                                    !- Solar Absorptance
  0.7;                                    !- Visible Absorptance

OS:Construction,
  {b401a3fd-fb61-4ddf-96be-b49b10bd214e}, !- Handle
  ASHRAE 189.1-2009 ExtRoof IEAD ClimateZone 1, !- Name
  ,                                       !- Surface Rendering Name
  {b3afb7c0-e9ea-4288-b444-0ed104bababd}, !- Layer 1
  {b772cc90-ff5c-4776-957f-bd8ea624781f}, !- Layer 2
  {74067a79-78ec-4754-949c-af93eec2e5af}; !- Layer 3

OS:StandardsInformation:Construction,
  {3bb211b0-4f75-4b51-b29a-1814ef237f1c}, !- Handle
  {b401a3fd-fb61-4ddf-96be-b49b10bd214e}, !- Construction Name
  ExteriorRoof,                           !- Intended Surface Type
  IEAD;                                   !- Standards Construction Type

OS:Material,
  {b3afb7c0-e9ea-4288-b444-0ed104bababd}, !- Handle
  Roof Membrane,                          !- Name
  VeryRough,                              !- Roughness
  0.0095,                                 !- Thickness {m}
  0.16,                                   !- Conductivity {W/m-K}
  1121.29,                                !- Density {kg/m3}
  1460,                                   !- Specific Heat {J/kg-K}
  0.9,                                    !- Thermal Absorptance
  0.7,                                    !- Solar Absorptance
  0.7;                                    !- Visible Absorptance

OS:Material,
  {b772cc90-ff5c-4776-957f-bd8ea624781f}, !- Handle
  Roof Insulation [18],                   !- Name
  MediumRough,                            !- Roughness
  0.1693,                                 !- Thickness {m}
  0.049,                                  !- Conductivity {W/m-K}
  265,                                    !- Density {kg/m3}
  836.800000000001,                       !- Specific Heat {J/kg-K}
  0.9,                                    !- Thermal Absorptance
  0.7,                                    !- Solar Absorptance
  0.7;                                    !- Visible Absorptance

OS:Material,
  {74067a79-78ec-4754-949c-af93eec2e5af}, !- Handle
  Metal Decking,                          !- Name
  MediumSmooth,                           !- Roughness
  0.0015,                                 !- Thickness {m}
  45.006,                                 !- Conductivity {W/m-K}
  7680,                                   !- Density {kg/m3}
  418.4,                                  !- Specific Heat {J/kg-K}
  0.9,                                    !- Thermal Absorptance
  0.7,                                    !- Solar Absorptance
  0.3;                                    !- Visible Absorptance

OS:Construction,
  {5b29b25f-9c05-4105-85bd-d5752336a230}, !- Handle
  ASHRAE 189.1-2009 ExtRoof IEAD ClimateZone 2-5, !- Name
  ,                                       !- Surface Rendering Name
  {b3afb7c0-e9ea-4288-b444-0ed104bababd}, !- Layer 1
  {2c316b66-e406-495f-9501-59ed964a6297}, !- Layer 2
  {74067a79-78ec-4754-949c-af93eec2e5af}; !- Layer 3

OS:StandardsInformation:Construction,
  {3d5f6ac6-a977-45cc-9700-0e3c577736a0}, !- Handle
  {5b29b25f-9c05-4105-85bd-d5752336a230}, !- Construction Name
  ExteriorRoof,                           !- Intended Surface Type
  IEAD;                                   !- Standards Construction Type

OS:Material,
  {2c316b66-e406-495f-9501-59ed964a6297}, !- Handle
  Roof Insulation [21],                   !- Name
  MediumRough,                            !- Roughness
  0.2105,                                 !- Thickness {m}
  0.049,                                  !- Conductivity {W/m-K}
  265,                                    !- Density {kg/m3}
  836.800000000001,                       !- Specific Heat {J/kg-K}
  0.9,                                    !- Thermal Absorptance
  0.7,                                    !- Solar Absorptance
  0.7;                                    !- Visible Absorptance

OS:Construction,
  {8c75db23-e3e5-47a9-9d1d-6ef65ec69c63}, !- Handle
  ASHRAE 189.1-2009 ExtRoof IEAD ClimateZone 6, !- Name
  ,                                       !- Surface Rendering Name
  {b3afb7c0-e9ea-4288-b444-0ed104bababd}, !- Layer 1
  {adeac048-1aa1-446a-8161-b1331ad323fc}, !- Layer 2
  {74067a79-78ec-4754-949c-af93eec2e5af}; !- Layer 3

OS:StandardsInformation:Construction,
  {dc6091eb-f306-4d52-9a39-975c2524b1e9}, !- Handle
  {8c75db23-e3e5-47a9-9d1d-6ef65ec69c63}, !- Construction Name
  ExteriorRoof,                           !- Intended Surface Type
  IEAD;                                   !- Standards Construction Type

OS:Material,
  {adeac048-1aa1-446a-8161-b1331ad323fc}, !- Handle
  Roof Insulation [24],                   !- Name
  MediumRough,                            !- Roughness
  0.260100000000001,                      !- Thickness {m}
  0.049,                                  !- Conductivity {W/m-K}
  265,                                    !- Density {kg/m3}
  836.800000000001,                       !- Specific Heat {J/kg-K}
  0.9,                                    !- Thermal Absorptance
  0.7,                                    !- Solar Absorptance
  0.7;                                    !- Visible Absorptance

OS:Construction,
  {beb37960-5812-449c-be5b-beef95fad0c9}, !- Handle
  ASHRAE 189.1-2009 ExtRoof IEAD ClimateZone 7-8, !- Name
  ,                                       !- Surface Rendering Name
  {b3afb7c0-e9ea-4288-b444-0ed104bababd}, !- Layer 1
  {3ceb4d05-49b3-4a56-8e2a-fed65006aa9a}, !- Layer 2
  {74067a79-78ec-4754-949c-af93eec2e5af}; !- Layer 3

OS:StandardsInformation:Construction,
  {29f4fc5e-b922-4a76-b129-f006a4ab2cfb}, !- Handle
  {beb37960-5812-449c-be5b-beef95fad0c9}, !- Construction Name
  ExteriorRoof,                           !- Intended Surface Type
  IEAD;                                   !- Standards Construction Type

OS:Material,
  {3ceb4d05-49b3-4a56-8e2a-fed65006aa9a}, !- Handle
  Roof Insulation [26],                   !- Name
  MediumRough,                            !- Roughness
  0.2941,                                 !- Thickness {m}
  0.049,                                  !- Conductivity {W/m-K}
  265,                                    !- Density {kg/m3}
  836.800000000001,                       !- Specific Heat {J/kg-K}
  0.9,                                    !- Thermal Absorptance
  0.7,                                    !- Solar Absorptance
  0.7;                                    !- Visible Absorptance

OS:Construction,
  {5cfc28f2-34e8-48ab-ad5a-37974cadacde}, !- Handle
  ASHRAE 189.1-2009 ExtRoof Metal ClimateZone 1, !- Name
  ,                                       !- Surface Rendering Name
  {3cf15621-f889-4a91-a52b-c057904c96dd}, !- Layer 1
  {973cc09a-2afe-4db9-8d35-7a238327db73}; !- Layer 2

OS:StandardsInformation:Construction,
  {1fac9cd3-8443-46f9-b892-eb95ae881a11}, !- Handle
  {5cfc28f2-34e8-48ab-ad5a-37974cadacde}, !- Construction Name
  ExteriorRoof,                           !- Intended Surface Type
  Metal;                                  !- Standards Construction Type

OS:Material,
  {3cf15621-f889-4a91-a52b-c057904c96dd}, !- Handle
  Metal Roofing,                          !- Name
  MediumSmooth,                           !- Roughness
  0.0015,                                 !- Thickness {m}
  45.006,                                 !- Conductivity {W/m-K}
  7680,                                   !- Density {kg/m3}
  418.4,                                  !- Specific Heat {J/kg-K}
  0.9,                                    !- Thermal Absorptance
  0.3,                                    !- Solar Absorptance
  0.3;                                    !- Visible Absorptance

OS:Material,
  {973cc09a-2afe-4db9-8d35-7a238327db73}, !- Handle
  Roof Insulation [19],                   !- Name
  MediumRough,                            !- Roughness
  0.1868,                                 !- Thickness {m}
  0.049,                                  !- Conductivity {W/m-K}
  265,                                    !- Density {kg/m3}
  836.800000000001,                       !- Specific Heat {J/kg-K}
  0.9,                                    !- Thermal Absorptance
  0.7,                                    !- Solar Absorptance
  0.7;                                    !- Visible Absorptance

OS:Construction,
  {49f32981-f833-45d7-9adb-ef068706e946}, !- Handle
  ASHRAE 189.1-2009 ExtRoof Metal ClimateZone 2-5, !- Name
  ,                                       !- Surface Rendering Name
  {3cf15621-f889-4a91-a52b-c057904c96dd}, !- Layer 1
  {db8a7974-77d9-418e-89ab-3849e7558e1e}; !- Layer 2

OS:StandardsInformation:Construction,
  {961be73d-35d2-4385-bd7f-b1fc6085779a}, !- Handle
  {49f32981-f833-45d7-9adb-ef068706e946}, !- Construction Name
  ExteriorRoof,                           !- Intended Surface Type
  Metal;                                  !- Standards Construction Type

OS:Material,
  {db8a7974-77d9-418e-89ab-3849e7558e1e}, !- Handle
  Roof Insulation [22],                   !- Name
  MediumRough,                            !- Roughness
  0.2358,                                 !- Thickness {m}
  0.049,                                  !- Conductivity {W/m-K}
  265,                                    !- Density {kg/m3}
  836.800000000001,                       !- Specific Heat {J/kg-K}
  0.9,                                    !- Thermal Absorptance
  0.7,                                    !- Solar Absorptance
  0.7;                                    !- Visible Absorptance

OS:Construction,
  {e148a97c-5462-4451-b201-98d53f2d3271}, !- Handle
  ASHRAE 189.1-2009 ExtRoof Metal ClimateZone 6, !- Name
  ,                                       !- Surface Rendering Name
  {3cf15621-f889-4a91-a52b-c057904c96dd}, !- Layer 1
  {eb03dbd7-97a6-4db9-85a3-321087bea79d}; !- Layer 2

OS:StandardsInformation:Construction,
  {dc5a2848-1715-41ce-8d35-cff0d3dbbe2b}, !- Handle
  {e148a97c-5462-4451-b201-98d53f2d3271}, !- Construction Name
  ExteriorRoof,                           !- Intended Surface Type
  Metal;                                  !- Standards Construction Type

OS:Material,
  {eb03dbd7-97a6-4db9-85a3-321087bea79d}, !- Handle
  Roof Insulation [25],                   !- Name
  MediumRough,                            !- Roughness
  0.263,                                  !- Thickness {m}
  0.049,                                  !- Conductivity {W/m-K}
  265,                                    !- Density {kg/m3}
  836.800000000001,                       !- Specific Heat {J/kg-K}
  0.9,                                    !- Thermal Absorptance
  0.7,                                    !- Solar Absorptance
  0.7;                                    !- Visible Absorptance

OS:Construction,
  {ecea9b4d-25d5-4b78-b313-7edeec8df733}, !- Handle
  ASHRAE 189.1-2009 ExtRoof Metal ClimateZone 7-8, !- Name
  ,                                       !- Surface Rendering Name
  {3cf15621-f889-4a91-a52b-c057904c96dd}, !- Layer 1
  {b2e55c55-d85b-4ba0-b55e-3d58f4efaeb4}; !- Layer 2

OS:StandardsInformation:Construction,
  {01d8bf76-6f4d-4d69-8d1f-1c8863950fac}, !- Handle
  {ecea9b4d-25d5-4b78-b313-7edeec8df733}, !- Construction Name
  ExteriorRoof,                           !- Intended Surface Type
  Metal;                                  !- Standards Construction Type

OS:Material,
  {b2e55c55-d85b-4ba0-b55e-3d58f4efaeb4}, !- Handle
  Roof Insulation [27],                   !- Name
  MediumRough,                            !- Roughness
  0.297000000000001,                      !- Thickness {m}
  0.049,                                  !- Conductivity {W/m-K}
  265,                                    !- Density {kg/m3}
  836.800000000001,                       !- Specific Heat {J/kg-K}
  0.9,                                    !- Thermal Absorptance
  0.7,                                    !- Solar Absorptance
  0.7;                                    !- Visible Absorptance

OS:Construction,
  {e847f076-dd50-4371-a5e0-8b81073923b4}, !- Handle
  ASHRAE 189.1-2009 ExtWall Mass ClimateZone 1, !- Name
  ,                                       !- Surface Rendering Name
  {4088e332-3c9d-47a9-adf2-e205f7c9c0bc}, !- Layer 1
  {3ab5fb91-4b62-4644-a114-703be0b42044}, !- Layer 2
  {63dacd56-96d0-4964-a98c-0bff2b7c0f5c}, !- Layer 3
  {eba8a3f9-c02f-4f9f-9904-d9662c21d2f5}; !- Layer 4

OS:StandardsInformation:Construction,
  {21e966ac-43e5-469f-b5b5-44a3449d9a5e}, !- Handle
  {e847f076-dd50-4371-a5e0-8b81073923b4}, !- Construction Name
  ExteriorWall,                           !- Intended Surface Type
  Mass;                                   !- Standards Construction Type

OS:Material,
  {4088e332-3c9d-47a9-adf2-e205f7c9c0bc}, !- Handle
  1IN Stucco,                             !- Name
  Smooth,                                 !- Roughness
  0.0253,                                 !- Thickness {m}
  0.691799999999999,                      !- Conductivity {W/m-K}
  1858,                                   !- Density {kg/m3}
  836.999999999999,                       !- Specific Heat {J/kg-K}
  0.9,                                    !- Thermal Absorptance
  0.92,                                   !- Solar Absorptance
  0.92;                                   !- Visible Absorptance

OS:Material,
  {3ab5fb91-4b62-4644-a114-703be0b42044}, !- Handle
  8IN Concrete HW,                        !- Name
  MediumRough,                            !- Roughness
  0.2033,                                 !- Thickness {m}
  1.72959999999999,                       !- Conductivity {W/m-K}
  2242.99999999999,                       !- Density {kg/m3}
  836.999999999999,                       !- Specific Heat {J/kg-K}
  0.9,                                    !- Thermal Absorptance
  0.65,                                   !- Solar Absorptance
  0.65;                                   !- Visible Absorptance

OS:Material,
  {63dacd56-96d0-4964-a98c-0bff2b7c0f5c}, !- Handle
  Wall Insulation [31],                   !- Name
  MediumRough,                            !- Roughness
  0.0337000000000001,                     !- Thickness {m}
  0.0432,                                 !- Conductivity {W/m-K}
  91,                                     !- Density {kg/m3}
  836.999999999999,                       !- Specific Heat {J/kg-K}
  0.9,                                    !- Thermal Absorptance
  0.5,                                    !- Solar Absorptance
  0.5;                                    !- Visible Absorptance

OS:Construction,
  {87a3f0e1-2d74-4c39-a538-c110f8d6b65a}, !- Handle
  ASHRAE 189.1-2009 ExtWall Mass ClimateZone 2, !- Name
  ,                                       !- Surface Rendering Name
  {4088e332-3c9d-47a9-adf2-e205f7c9c0bc}, !- Layer 1
  {3ab5fb91-4b62-4644-a114-703be0b42044}, !- Layer 2
  {a724cad8-3d70-415d-9373-52b0a1084107}, !- Layer 3
  {eba8a3f9-c02f-4f9f-9904-d9662c21d2f5}; !- Layer 4

OS:StandardsInformation:Construction,
  {3ec98126-d182-45c7-85ab-8be38f5a3a82}, !- Handle
  {87a3f0e1-2d74-4c39-a538-c110f8d6b65a}, !- Construction Name
  ExteriorWall,                           !- Intended Surface Type
  Mass;                                   !- Standards Construction Type

OS:Material,
  {a724cad8-3d70-415d-9373-52b0a1084107}, !- Handle
  Wall Insulation [35],                   !- Name
  MediumRough,                            !- Roughness
  0.0452,                                 !- Thickness {m}
  0.0432,                                 !- Conductivity {W/m-K}
  91,                                     !- Density {kg/m3}
  836.999999999999,                       !- Specific Heat {J/kg-K}
  0.9,                                    !- Thermal Absorptance
  0.5,                                    !- Solar Absorptance
  0.5;                                    !- Visible Absorptance

OS:Construction,
  {678d3bf8-3856-480e-b58f-2d7421b41206}, !- Handle
  ASHRAE 189.1-2009 ExtWall Mass ClimateZone 3, !- Name
  ,                                       !- Surface Rendering Name
  {4088e332-3c9d-47a9-adf2-e205f7c9c0bc}, !- Layer 1
  {3ab5fb91-4b62-4644-a114-703be0b42044}, !- Layer 2
  {aeab1b6d-7447-4cc4-8411-b1e930259bf8}, !- Layer 3
  {eba8a3f9-c02f-4f9f-9904-d9662c21d2f5}; !- Layer 4

OS:StandardsInformation:Construction,
  {75f25530-25c8-43f3-bb1f-f42480562f3e}, !- Handle
  {678d3bf8-3856-480e-b58f-2d7421b41206}, !- Construction Name
  ExteriorWall,                           !- Intended Surface Type
  Mass;                                   !- Standards Construction Type

OS:Material,
  {aeab1b6d-7447-4cc4-8411-b1e930259bf8}, !- Handle
  Wall Insulation [36],                   !- Name
  MediumRough,                            !- Roughness
  0.0565999999999999,                     !- Thickness {m}
  0.0432,                                 !- Conductivity {W/m-K}
  91,                                     !- Density {kg/m3}
  836.999999999999,                       !- Specific Heat {J/kg-K}
  0.9,                                    !- Thermal Absorptance
  0.5,                                    !- Solar Absorptance
  0.5;                                    !- Visible Absorptance

OS:Construction,
  {e198d91d-bae5-4370-94cf-75622b0fe657}, !- Handle
  ASHRAE 189.1-2009 ExtWall Mass ClimateZone 4, !- Name
  ,                                       !- Surface Rendering Name
  {4088e332-3c9d-47a9-adf2-e205f7c9c0bc}, !- Layer 1
  {3ab5fb91-4b62-4644-a114-703be0b42044}, !- Layer 2
  {a8f45f59-503a-45cf-8329-d5ec8cdfc3a1}, !- Layer 3
  {eba8a3f9-c02f-4f9f-9904-d9662c21d2f5}; !- Layer 4

OS:StandardsInformation:Construction,
  {10d7afe9-2e0e-4eb7-a067-71cb82a5c44a}, !- Handle
  {e198d91d-bae5-4370-94cf-75622b0fe657}, !- Construction Name
  ExteriorWall,                           !- Intended Surface Type
  Mass;                                   !- Standards Construction Type

OS:Material,
  {a8f45f59-503a-45cf-8329-d5ec8cdfc3a1}, !- Handle
  Wall Insulation [37],                   !- Name
  MediumRough,                            !- Roughness
  0.0680999999999999,                     !- Thickness {m}
  0.0432,                                 !- Conductivity {W/m-K}
  91,                                     !- Density {kg/m3}
  836.999999999999,                       !- Specific Heat {J/kg-K}
  0.9,                                    !- Thermal Absorptance
  0.5,                                    !- Solar Absorptance
  0.5;                                    !- Visible Absorptance

OS:Construction,
  {870562e4-cc6e-459a-b857-556ba9d7cc70}, !- Handle
  ASHRAE 189.1-2009 ExtWall Mass ClimateZone 5, !- Name
  ,                                       !- Surface Rendering Name
  {4088e332-3c9d-47a9-adf2-e205f7c9c0bc}, !- Layer 1
  {3ab5fb91-4b62-4644-a114-703be0b42044}, !- Layer 2
  {2135d45b-706f-48f1-8630-dc476c1bbe65}, !- Layer 3
  {eba8a3f9-c02f-4f9f-9904-d9662c21d2f5}; !- Layer 4

OS:StandardsInformation:Construction,
  {f2dfd05f-017d-4587-a5fe-50fee438eab4}, !- Handle
  {870562e4-cc6e-459a-b857-556ba9d7cc70}, !- Construction Name
  ExteriorWall,                           !- Intended Surface Type
  Mass;                                   !- Standards Construction Type

OS:Material,
  {2135d45b-706f-48f1-8630-dc476c1bbe65}, !- Handle
  Wall Insulation [40],                   !- Name
  MediumRough,                            !- Roughness
  0.0793999999999999,                     !- Thickness {m}
  0.0432,                                 !- Conductivity {W/m-K}
  91,                                     !- Density {kg/m3}
  836.999999999999,                       !- Specific Heat {J/kg-K}
  0.9,                                    !- Thermal Absorptance
  0.5,                                    !- Solar Absorptance
  0.5;                                    !- Visible Absorptance

OS:Construction,
  {5a356589-b2a5-451d-a991-ea48ea0477cd}, !- Handle
  ASHRAE 189.1-2009 ExtWall Mass ClimateZone 6, !- Name
  ,                                       !- Surface Rendering Name
  {4088e332-3c9d-47a9-adf2-e205f7c9c0bc}, !- Layer 1
  {3ab5fb91-4b62-4644-a114-703be0b42044}, !- Layer 2
  {8cc797da-e2b6-46b1-b595-7961daa5ba2c}, !- Layer 3
  {eba8a3f9-c02f-4f9f-9904-d9662c21d2f5}; !- Layer 4

OS:StandardsInformation:Construction,
  {443ba305-3559-4cda-830c-4fd7550b2fd3}, !- Handle
  {5a356589-b2a5-451d-a991-ea48ea0477cd}, !- Construction Name
  ExteriorWall,                           !- Intended Surface Type
  Mass;                                   !- Standards Construction Type

OS:Material,
  {8cc797da-e2b6-46b1-b595-7961daa5ba2c}, !- Handle
  Wall Insulation [42],                   !- Name
  MediumRough,                            !- Roughness
  0.0913999999999999,                     !- Thickness {m}
  0.0432,                                 !- Conductivity {W/m-K}
  91,                                     !- Density {kg/m3}
  836.999999999999,                       !- Specific Heat {J/kg-K}
  0.9,                                    !- Thermal Absorptance
  0.5,                                    !- Solar Absorptance
  0.5;                                    !- Visible Absorptance

OS:Construction,
  {b0a3e5ce-7164-47cb-8d6e-03a56cc45432}, !- Handle
  ASHRAE 189.1-2009 ExtWall Mass ClimateZone 7-8, !- Name
  ,                                       !- Surface Rendering Name
  {4088e332-3c9d-47a9-adf2-e205f7c9c0bc}, !- Layer 1
  {3ab5fb91-4b62-4644-a114-703be0b42044}, !- Layer 2
  {cbb5e12f-8bf3-49b3-9197-148e5980f298}, !- Layer 3
  {eba8a3f9-c02f-4f9f-9904-d9662c21d2f5}; !- Layer 4

OS:StandardsInformation:Construction,
  {cad968b2-ced0-4055-9999-222839499eb3}, !- Handle
  {b0a3e5ce-7164-47cb-8d6e-03a56cc45432}, !- Construction Name
  ExteriorWall,                           !- Intended Surface Type
  Mass;                                   !- Standards Construction Type

OS:Material,
  {cbb5e12f-8bf3-49b3-9197-148e5980f298}, !- Handle
  Wall Insulation [44],                   !- Name
  MediumRough,                            !- Roughness
  0.1104,                                 !- Thickness {m}
  0.0432,                                 !- Conductivity {W/m-K}
  91,                                     !- Density {kg/m3}
  836.999999999999,                       !- Specific Heat {J/kg-K}
  0.9,                                    !- Thermal Absorptance
  0.5,                                    !- Solar Absorptance
  0.5;                                    !- Visible Absorptance

OS:Construction,
  {6f6df50e-375b-42c2-b7ff-0dad75636911}, !- Handle
  ASHRAE 189.1-2009 ExtWall Mass ClimateZone alt-res 1, !- Name
  ,                                       !- Surface Rendering Name
  {4088e332-3c9d-47a9-adf2-e205f7c9c0bc}, !- Layer 1
  {3ab5fb91-4b62-4644-a114-703be0b42044}, !- Layer 2
  {a724cad8-3d70-415d-9373-52b0a1084107}, !- Layer 3
  {eba8a3f9-c02f-4f9f-9904-d9662c21d2f5}; !- Layer 4

OS:StandardsInformation:Construction,
  {99842075-2b62-4ebe-a5d7-0bfa0acbfc03}, !- Handle
  {6f6df50e-375b-42c2-b7ff-0dad75636911}, !- Construction Name
  ExteriorWall,                           !- Intended Surface Type
  Mass;                                   !- Standards Construction Type

OS:Construction,
  {042da05d-4248-4dc1-8e59-3db5fd03b622}, !- Handle
  ASHRAE 189.1-2009 ExtWall Mass ClimateZone alt-res 2, !- Name
  ,                                       !- Surface Rendering Name
  {4088e332-3c9d-47a9-adf2-e205f7c9c0bc}, !- Layer 1
  {3ab5fb91-4b62-4644-a114-703be0b42044}, !- Layer 2
  {aeab1b6d-7447-4cc4-8411-b1e930259bf8}, !- Layer 3
  {eba8a3f9-c02f-4f9f-9904-d9662c21d2f5}; !- Layer 4

OS:StandardsInformation:Construction,
  {505ca44f-6abd-4eed-89de-634b7800a6d3}, !- Handle
  {042da05d-4248-4dc1-8e59-3db5fd03b622}, !- Construction Name
  ExteriorWall,                           !- Intended Surface Type
  Mass;                                   !- Standards Construction Type

OS:Construction,
  {a906e716-a35b-4823-b27d-db08c5b3d078}, !- Handle
  ASHRAE 189.1-2009 ExtWall Mass ClimateZone alt-res 3, !- Name
  ,                                       !- Surface Rendering Name
  {4088e332-3c9d-47a9-adf2-e205f7c9c0bc}, !- Layer 1
  {3ab5fb91-4b62-4644-a114-703be0b42044}, !- Layer 2
  {a8f45f59-503a-45cf-8329-d5ec8cdfc3a1}, !- Layer 3
  {eba8a3f9-c02f-4f9f-9904-d9662c21d2f5}; !- Layer 4

OS:StandardsInformation:Construction,
  {5e27dd10-0d32-4b06-8488-ac29b12999e1}, !- Handle
  {a906e716-a35b-4823-b27d-db08c5b3d078}, !- Construction Name
  ExteriorWall,                           !- Intended Surface Type
  Mass;                                   !- Standards Construction Type

OS:Construction,
  {abbdcecf-99d7-4b05-bad0-c709a27de7f2}, !- Handle
  ASHRAE 189.1-2009 ExtWall Mass ClimateZone alt-res 4, !- Name
  ,                                       !- Surface Rendering Name
  {4088e332-3c9d-47a9-adf2-e205f7c9c0bc}, !- Layer 1
  {3ab5fb91-4b62-4644-a114-703be0b42044}, !- Layer 2
  {2135d45b-706f-48f1-8630-dc476c1bbe65}, !- Layer 3
  {eba8a3f9-c02f-4f9f-9904-d9662c21d2f5}; !- Layer 4

OS:StandardsInformation:Construction,
  {aab4c10d-3645-4d4a-9d58-d23382f77d6b}, !- Handle
  {abbdcecf-99d7-4b05-bad0-c709a27de7f2}, !- Construction Name
  ExteriorWall,                           !- Intended Surface Type
  Mass;                                   !- Standards Construction Type

OS:Construction,
  {337e5706-43de-439c-954e-2d432931673d}, !- Handle
  ASHRAE 189.1-2009 ExtWall Mass ClimateZone alt-res 5, !- Name
  ,                                       !- Surface Rendering Name
  {4088e332-3c9d-47a9-adf2-e205f7c9c0bc}, !- Layer 1
  {3ab5fb91-4b62-4644-a114-703be0b42044}, !- Layer 2
  {8cc797da-e2b6-46b1-b595-7961daa5ba2c}, !- Layer 3
  {eba8a3f9-c02f-4f9f-9904-d9662c21d2f5}; !- Layer 4

OS:StandardsInformation:Construction,
  {a47698d6-0d79-431c-b650-9b47c459fff3}, !- Handle
  {337e5706-43de-439c-954e-2d432931673d}, !- Construction Name
  ExteriorWall,                           !- Intended Surface Type
  Mass;                                   !- Standards Construction Type

OS:Construction,
  {6a182dd8-a896-4c15-bf90-ec26cd7f3e98}, !- Handle
  ASHRAE 189.1-2009 ExtWall Mass ClimateZone alt-res 6, !- Name
  ,                                       !- Surface Rendering Name
  {4088e332-3c9d-47a9-adf2-e205f7c9c0bc}, !- Layer 1
  {3ab5fb91-4b62-4644-a114-703be0b42044}, !- Layer 2
  {cbb5e12f-8bf3-49b3-9197-148e5980f298}, !- Layer 3
  {eba8a3f9-c02f-4f9f-9904-d9662c21d2f5}; !- Layer 4

OS:StandardsInformation:Construction,
  {ef665637-df74-4844-9492-d4b84ffede06}, !- Handle
  {6a182dd8-a896-4c15-bf90-ec26cd7f3e98}, !- Construction Name
  ExteriorWall,                           !- Intended Surface Type
  Mass;                                   !- Standards Construction Type

OS:Construction,
  {1825ac1b-8b75-42b2-aa66-c8cfa6a2ae22}, !- Handle
  ASHRAE 189.1-2009 ExtWall Mass ClimateZone alt-res 7, !- Name
  ,                                       !- Surface Rendering Name
  {4088e332-3c9d-47a9-adf2-e205f7c9c0bc}, !- Layer 1
  {3ab5fb91-4b62-4644-a114-703be0b42044}, !- Layer 2
  {cbb5e12f-8bf3-49b3-9197-148e5980f298}, !- Layer 3
  {eba8a3f9-c02f-4f9f-9904-d9662c21d2f5}; !- Layer 4

OS:StandardsInformation:Construction,
  {ef3d4b54-1727-45c9-a804-4320e5513bce}, !- Handle
  {1825ac1b-8b75-42b2-aa66-c8cfa6a2ae22}, !- Construction Name
  ExteriorWall,                           !- Intended Surface Type
  Mass;                                   !- Standards Construction Type

OS:Construction,
  {38e893a9-8b69-40da-bc78-b00dd16ce06f}, !- Handle
  ASHRAE 189.1-2009 ExtWall Mass ClimateZone alt-res 8, !- Name