
OS:Version,
  {60a8f5da-98e0-4cc8-931c-32f22a639008}, !- Handle
  1.3.3;                                  !- Version Identifier

OS:Construction,
  {5e3abbd0-5a59-4c7f-8083-51cbe9b11536}, !- Handle
  ASHRAE 189.1-2009 AtticFloor ClimateZone 1-8, !- Name
  ,                                       !- Surface Rendering Name
  {08691391-1716-426b-9e7b-72870bae0aca}, !- Layer 1
  {77c5c5f8-7476-4365-b413-fe410c527cba}, !- Layer 2
  {08691391-1716-426b-9e7b-72870bae0aca}; !- Layer 3

OS:StandardsInformation:Construction,
  {2bb6cac1-8004-4cf9-a543-ba290c3910d2}, !- Handle
  {5e3abbd0-5a59-4c7f-8083-51cbe9b11536}, !- Construction Name
  AtticFloor,                             !- Intended Surface Type
  WoodFramed;                             !- Standards Construction Type

OS:Material,
  {08691391-1716-426b-9e7b-72870bae0aca}, !- Handle
  1/2IN Gypsum,                           !- Name
  Smooth,                                 !- Roughness
  0.0127,                                 !- Thickness {m}
  0.16,                                   !- Conductivity {W/m-K}
  784.9,                                  !- Density {kg/m3}
  830.000000000001,                       !- Specific Heat {J/kg-K}
  0.9,                                    !- Thermal Absorptance
  0.92,                                   !- Solar Absorptance
  0.92;                                   !- Visible Absorptance

OS:Material,
  {77c5c5f8-7476-4365-b413-fe410c527cba}, !- Handle
  AtticFloor Insulation,                  !- Name
  MediumRough,                            !- Roughness
  0.2379,                                 !- Thickness {m}
  0.049,                                  !- Conductivity {W/m-K}
  265,                                    !- Density {kg/m3}
  836.800000000001,                       !- Specific Heat {J/kg-K}
  0.9,                                    !- Thermal Absorptance
  0.7,                                    !- Solar Absorptance
  0.7;                                    !- Visible Absorptance

OS:Construction,
  {9d98798d-e332-4f2f-a8c1-66e85727991f}, !- Handle
  ASHRAE 189.1-2009 ExtRoof IEAD ClimateZone 1, !- Name
  ,                                       !- Surface Rendering Name
  {9fbc72b0-e655-4db0-9d24-0f48cb57a125}, !- Layer 1
  {6abcb7a6-8165-49a0-b4b8-f156309ad6f6}, !- Layer 2
  {cbfbcc49-7f89-498a-a987-acd84ce2717b}; !- Layer 3

OS:StandardsInformation:Construction,
  {f156e8b3-aea1-4434-86a7-5b408b884783}, !- Handle
  {9d98798d-e332-4f2f-a8c1-66e85727991f}, !- Construction Name
  ExteriorRoof,                           !- Intended Surface Type
  IEAD;                                   !- Standards Construction Type

OS:Material,
  {9fbc72b0-e655-4db0-9d24-0f48cb57a125}, !- Handle
  Roof Membrane,                          !- Name
  VeryRough,                              !- Roughness
  0.0095,                                 !- Thickness {m}
  0.16,                                   !- Conductivity {W/m-K}
  1121.29,                                !- Density {kg/m3}
  1460,                                   !- Specific Heat {J/kg-K}
  0.9,                                    !- Thermal Absorptance
  0.7,                                    !- Solar Absorptance
  0.7;                                    !- Visible Absorptance

OS:Material,
  {6abcb7a6-8165-49a0-b4b8-f156309ad6f6}, !- Handle
  Roof Insulation [18],                   !- Name
  MediumRough,                            !- Roughness
  0.1693,                                 !- Thickness {m}
  0.049,                                  !- Conductivity {W/m-K}
  265,                                    !- Density {kg/m3}
  836.800000000001,                       !- Specific Heat {J/kg-K}
  0.9,                                    !- Thermal Absorptance
  0.7,                                    !- Solar Absorptance
  0.7;                                    !- Visible Absorptance

OS:Material,
  {cbfbcc49-7f89-498a-a987-acd84ce2717b}, !- Handle
  Metal Decking,                          !- Name
  MediumSmooth,                           !- Roughness
  0.0015,                                 !- Thickness {m}
  45.006,                                 !- Conductivity {W/m-K}
  7680,                                   !- Density {kg/m3}
  418.4,                                  !- Specific Heat {J/kg-K}
  0.9,                                    !- Thermal Absorptance
  0.7,                                    !- Solar Absorptance
  0.3;                                    !- Visible Absorptance

OS:Construction,
  {883e13d9-8e1d-41a5-b880-3c5a11eca14d}, !- Handle
  ASHRAE 189.1-2009 ExtRoof IEAD ClimateZone 2-5, !- Name
  ,                                       !- Surface Rendering Name
  {9fbc72b0-e655-4db0-9d24-0f48cb57a125}, !- Layer 1
  {a1527c35-3869-48b2-ae48-8ef449731486}, !- Layer 2
  {cbfbcc49-7f89-498a-a987-acd84ce2717b}; !- Layer 3

OS:StandardsInformation:Construction,
  {ee2d6bab-06e2-444c-b49a-973adc4f8b0a}, !- Handle
  {883e13d9-8e1d-41a5-b880-3c5a11eca14d}, !- Construction Name
  ExteriorRoof,                           !- Intended Surface Type
  IEAD;                                   !- Standards Construction Type

OS:Material,
  {a1527c35-3869-48b2-ae48-8ef449731486}, !- Handle
  Roof Insulation [21],                   !- Name
  MediumRough,                            !- Roughness
  0.2105,                                 !- Thickness {m}
  0.049,                                  !- Conductivity {W/m-K}
  265,                                    !- Density {kg/m3}
  836.800000000001,                       !- Specific Heat {J/kg-K}
  0.9,                                    !- Thermal Absorptance
  0.7,                                    !- Solar Absorptance
  0.7;                                    !- Visible Absorptance

OS:Construction,
  {fda9da77-ee64-4624-a0ce-9560b79d561d}, !- Handle
  ASHRAE 189.1-2009 ExtRoof IEAD ClimateZone 6, !- Name
  ,                                       !- Surface Rendering Name
  {9fbc72b0-e655-4db0-9d24-0f48cb57a125}, !- Layer 1
  {4b0e7471-3d6a-446d-ab7b-286b51bef651}, !- Layer 2
  {cbfbcc49-7f89-498a-a987-acd84ce2717b}; !- Layer 3

OS:StandardsInformation:Construction,
  {f7a380b5-8c01-486f-8af1-8c0163bf14c1}, !- Handle
  {fda9da77-ee64-4624-a0ce-9560b79d561d}, !- Construction Name
  ExteriorRoof,                           !- Intended Surface Type
  IEAD;                                   !- Standards Construction Type

OS:Material,
  {4b0e7471-3d6a-446d-ab7b-286b51bef651}, !- Handle
  Roof Insulation [24],                   !- Name
  MediumRough,                            !- Roughness
  0.260100000000001,                      !- Thickness {m}
  0.049,                                  !- Conductivity {W/m-K}
  265,                                    !- Density {kg/m3}
  836.800000000001,                       !- Specific Heat {J/kg-K}
  0.9,                                    !- Thermal Absorptance
  0.7,                                    !- Solar Absorptance
  0.7;                                    !- Visible Absorptance

OS:Construction,
  {59f495a5-0e64-4443-a712-adf4a23f1eec}, !- Handle
  ASHRAE 189.1-2009 ExtRoof IEAD ClimateZone 7-8, !- Name
  ,                                       !- Surface Rendering Name
  {9fbc72b0-e655-4db0-9d24-0f48cb57a125}, !- Layer 1
  {662b4a29-1102-4116-8af7-80fdb573a646}, !- Layer 2
  {cbfbcc49-7f89-498a-a987-acd84ce2717b}; !- Layer 3

OS:StandardsInformation:Construction,
  {6ab2cbed-c7a0-4fea-81dc-81fec7f909ab}, !- Handle
  {59f495a5-0e64-4443-a712-adf4a23f1eec}, !- Construction Name
  ExteriorRoof,                           !- Intended Surface Type
  IEAD;                                   !- Standards Construction Type

OS:Material,
  {662b4a29-1102-4116-8af7-80fdb573a646}, !- Handle
  Roof Insulation [26],                   !- Name
  MediumRough,                            !- Roughness
  0.2941,                                 !- Thickness {m}
  0.049,                                  !- Conductivity {W/m-K}
  265,                                    !- Density {kg/m3}
  836.800000000001,                       !- Specific Heat {J/kg-K}
  0.9,                                    !- Thermal Absorptance
  0.7,                                    !- Solar Absorptance
  0.7;                                    !- Visible Absorptance

OS:Construction,
  {2f237521-d3cb-499d-aaf9-1771b068ea4b}, !- Handle
  ASHRAE 189.1-2009 ExtRoof Metal ClimateZone 1, !- Name
  ,                                       !- Surface Rendering Name
  {eafa0a8b-faba-479e-b65f-a33b517dc737}, !- Layer 1
  {72a712c9-050b-4d91-a165-66c0996b070b}; !- Layer 2

OS:StandardsInformation:Construction,
  {3e516a68-32cc-434b-9091-01958dd9ee45}, !- Handle
  {2f237521-d3cb-499d-aaf9-1771b068ea4b}, !- Construction Name
  ExteriorRoof,                           !- Intended Surface Type
  Metal;                                  !- Standards Construction Type

OS:Material,
  {eafa0a8b-faba-479e-b65f-a33b517dc737}, !- Handle
  Metal Roofing,                          !- Name
  MediumSmooth,                           !- Roughness
  0.0015,                                 !- Thickness {m}
  45.006,                                 !- Conductivity {W/m-K}
  7680,                                   !- Density {kg/m3}
  418.4,                                  !- Specific Heat {J/kg-K}
  0.9,                                    !- Thermal Absorptance
  0.3,                                    !- Solar Absorptance
  0.3;                                    !- Visible Absorptance

OS:Material,
  {72a712c9-050b-4d91-a165-66c0996b070b}, !- Handle
  Roof Insulation [19],                   !- Name
  MediumRough,                            !- Roughness
  0.1868,                                 !- Thickness {m}
  0.049,                                  !- Conductivity {W/m-K}
  265,                                    !- Density {kg/m3}
  836.800000000001,                       !- Specific Heat {J/kg-K}
  0.9,                                    !- Thermal Absorptance
  0.7,                                    !- Solar Absorptance
  0.7;                                    !- Visible Absorptance

OS:Construction,
  {0fd68b86-3d8d-4051-9d38-f4bf775a9421}, !- Handle
  ASHRAE 189.1-2009 ExtRoof Metal ClimateZone 2-5, !- Name
  ,                                       !- Surface Rendering Name
  {eafa0a8b-faba-479e-b65f-a33b517dc737}, !- Layer 1
  {619935df-f1cf-45f7-bc1e-8712b89ef50e}; !- Layer 2

OS:StandardsInformation:Construction,
  {3b18945e-5405-4a57-8852-9ad9607b550a}, !- Handle
  {0fd68b86-3d8d-4051-9d38-f4bf775a9421}, !- Construction Name
  ExteriorRoof,                           !- Intended Surface Type
  Metal;                                  !- Standards Construction Type

OS:Material,
  {619935df-f1cf-45f7-bc1e-8712b89ef50e}, !- Handle
  Roof Insulation [22],                   !- Name
  MediumRough,                            !- Roughness
  0.2358,                                 !- Thickness {m}
  0.049,                                  !- Conductivity {W/m-K}
  265,                                    !- Density {kg/m3}
  836.800000000001,                       !- Specific Heat {J/kg-K}
  0.9,                                    !- Thermal Absorptance
  0.7,                                    !- Solar Absorptance
  0.7;                                    !- Visible Absorptance

OS:Construction,
  {0d650d3f-bbf7-4be0-b4f6-136b49db1b65}, !- Handle
  ASHRAE 189.1-2009 ExtRoof Metal ClimateZone 6, !- Name
  ,                                       !- Surface Rendering Name
  {eafa0a8b-faba-479e-b65f-a33b517dc737}, !- Layer 1
  {386ab9fd-756d-458d-92dc-ffd3e6b80fcc}; !- Layer 2

OS:StandardsInformation:Construction,
  {9c76420e-2d4e-427e-8712-c8db646043f2}, !- Handle
  {0d650d3f-bbf7-4be0-b4f6-136b49db1b65}, !- Construction Name
  ExteriorRoof,                           !- Intended Surface Type
  Metal;                                  !- Standards Construction Type

OS:Material,
  {386ab9fd-756d-458d-92dc-ffd3e6b80fcc}, !- Handle
  Roof Insulation [25],                   !- Name
  MediumRough,                            !- Roughness
  0.263,                                  !- Thickness {m}
  0.049,                                  !- Conductivity {W/m-K}
  265,                                    !- Density {kg/m3}
  836.800000000001,                       !- Specific Heat {J/kg-K}
  0.9,                                    !- Thermal Absorptance
  0.7,                                    !- Solar Absorptance
  0.7;                                    !- Visible Absorptance

OS:Construction,
  {721546d4-d562-42a3-bf1d-d99f173648de}, !- Handle
  ASHRAE 189.1-2009 ExtRoof Metal ClimateZone 7-8, !- Name
  ,                                       !- Surface Rendering Name
  {eafa0a8b-faba-479e-b65f-a33b517dc737}, !- Layer 1
  {dd120a60-7d66-48c0-aca5-5df9e8f7ba8e}; !- Layer 2

OS:StandardsInformation:Construction,
  {d1102305-53f6-4211-8bfd-0fc784be5cfc}, !- Handle
  {721546d4-d562-42a3-bf1d-d99f173648de}, !- Construction Name
  ExteriorRoof,                           !- Intended Surface Type
  Metal;                                  !- Standards Construction Type

OS:Material,
  {dd120a60-7d66-48c0-aca5-5df9e8f7ba8e}, !- Handle
  Roof Insulation [27],                   !- Name
  MediumRough,                            !- Roughness
  0.297000000000001,                      !- Thickness {m}
  0.049,                                  !- Conductivity {W/m-K}
  265,                                    !- Density {kg/m3}
  836.800000000001,                       !- Specific Heat {J/kg-K}
  0.9,                                    !- Thermal Absorptance
  0.7,                                    !- Solar Absorptance
  0.7;                                    !- Visible Absorptance

OS:Construction,
  {2f4e8a47-824b-4f55-aa8a-a7922e4a8c45}, !- Handle
  ASHRAE 189.1-2009 ExtWall Mass ClimateZone 1, !- Name
  ,                                       !- Surface Rendering Name
  {d0f7707c-f479-4ac2-bdb3-3227572a0278}, !- Layer 1
  {d9797111-353a-48fd-944c-9e81d84e4dbb}, !- Layer 2
  {fc60de87-60b7-433b-af21-581c9d799942}, !- Layer 3
  {08691391-1716-426b-9e7b-72870bae0aca}; !- Layer 4

OS:StandardsInformation:Construction,
  {997f8518-10ac-41ed-8e75-0958b8b706f3}, !- Handle
  {2f4e8a47-824b-4f55-aa8a-a7922e4a8c45}, !- Construction Name
  ExteriorWall,                           !- Intended Surface Type
  Mass;                                   !- Standards Construction Type

OS:Material,
  {d0f7707c-f479-4ac2-bdb3-3227572a0278}, !- Handle
  1IN Stucco,                             !- Name
  Smooth,                                 !- Roughness
  0.0253,                                 !- Thickness {m}
  0.691799999999999,                      !- Conductivity {W/m-K}
  1858,                                   !- Density {kg/m3}
  836.999999999999,                       !- Specific Heat {J/kg-K}
  0.9,                                    !- Thermal Absorptance
  0.92,                                   !- Solar Absorptance
  0.92;                                   !- Visible Absorptance

OS:Material,
  {d9797111-353a-48fd-944c-9e81d84e4dbb}, !- Handle
  8IN Concrete HW,                        !- Name
  MediumRough,                            !- Roughness
  0.2033,                                 !- Thickness {m}
  1.72959999999999,                       !- Conductivity {W/m-K}
  2242.99999999999,                       !- Density {kg/m3}
  836.999999999999,                       !- Specific Heat {J/kg-K}
  0.9,                                    !- Thermal Absorptance
  0.65,                                   !- Solar Absorptance
  0.65;                                   !- Visible Absorptance

OS:Material,
  {fc60de87-60b7-433b-af21-581c9d799942}, !- Handle
  Wall Insulation [31],                   !- Name
  MediumRough,                            !- Roughness
  0.0337000000000001,                     !- Thickness {m}
  0.0432,                                 !- Conductivity {W/m-K}
  91,                                     !- Density {kg/m3}
  836.999999999999,                       !- Specific Heat {J/kg-K}
  0.9,                                    !- Thermal Absorptance
  0.5,                                    !- Solar Absorptance
  0.5;                                    !- Visible Absorptance

OS:Construction,
  {352ed9b7-8052-478b-aca1-b2c44a5810c1}, !- Handle
  ASHRAE 189.1-2009 ExtWall Mass ClimateZone 2, !- Name
  ,                                       !- Surface Rendering Name
  {d0f7707c-f479-4ac2-bdb3-3227572a0278}, !- Layer 1
  {d9797111-353a-48fd-944c-9e81d84e4dbb}, !- Layer 2
  {31f85837-9c5d-47bd-9328-777b68c63cc3}, !- Layer 3
  {08691391-1716-426b-9e7b-72870bae0aca}; !- Layer 4

OS:StandardsInformation:Construction,
  {d13f2b3e-a0f7-4153-9f75-d71d7bd79dbd}, !- Handle
  {352ed9b7-8052-478b-aca1-b2c44a5810c1}, !- Construction Name
  ExteriorWall,                           !- Intended Surface Type
  Mass;                                   !- Standards Construction Type

OS:Material,
  {31f85837-9c5d-47bd-9328-777b68c63cc3}, !- Handle
  Wall Insulation [35],                   !- Name
  MediumRough,                            !- Roughness
  0.0452,                                 !- Thickness {m}
  0.0432,                                 !- Conductivity {W/m-K}
  91,                                     !- Density {kg/m3}
  836.999999999999,                       !- Specific Heat {J/kg-K}
  0.9,                                    !- Thermal Absorptance
  0.5,                                    !- Solar Absorptance
  0.5;                                    !- Visible Absorptance

OS:Construction,
  {8d614706-5dc2-46ae-91f4-0451d3d06895}, !- Handle
  ASHRAE 189.1-2009 ExtWall Mass ClimateZone 3, !- Name
  ,                                       !- Surface Rendering Name
  {d0f7707c-f479-4ac2-bdb3-3227572a0278}, !- Layer 1
  {d9797111-353a-48fd-944c-9e81d84e4dbb}, !- Layer 2
  {96e83123-328a-4f67-ad75-681344fe1dd4}, !- Layer 3
  {08691391-1716-426b-9e7b-72870bae0aca}; !- Layer 4

OS:StandardsInformation:Construction,
  {e6ecefa1-1007-4e54-aac2-ed67d7f0272c}, !- Handle
  {8d614706-5dc2-46ae-91f4-0451d3d06895}, !- Construction Name
  ExteriorWall,                           !- Intended Surface Type
  Mass;                                   !- Standards Construction Type

OS:Material,
  {96e83123-328a-4f67-ad75-681344fe1dd4}, !- Handle
  Wall Insulation [36],                   !- Name
  MediumRough,                            !- Roughness
  0.0565999999999999,                     !- Thickness {m}
  0.0432,                                 !- Conductivity {W/m-K}
  91,                                     !- Density {kg/m3}
  836.999999999999,                       !- Specific Heat {J/kg-K}
  0.9,                                    !- Thermal Absorptance
  0.5,                                    !- Solar Absorptance
  0.5;                                    !- Visible Absorptance

OS:Construction,
  {ddd7eaf2-533c-4236-a2a9-c55adee54e94}, !- Handle
  ASHRAE 189.1-2009 ExtWall Mass ClimateZone 4, !- Name
  ,                                       !- Surface Rendering Name
  {d0f7707c-f479-4ac2-bdb3-3227572a0278}, !- Layer 1
  {d9797111-353a-48fd-944c-9e81d84e4dbb}, !- Layer 2
  {bec8fe03-ed19-4d7a-8602-3bb5c4f8c606}, !- Layer 3
  {08691391-1716-426b-9e7b-72870bae0aca}; !- Layer 4

OS:StandardsInformation:Construction,
  {bed6b5d7-6499-4605-88fc-b7b1f41f381a}, !- Handle
  {ddd7eaf2-533c-4236-a2a9-c55adee54e94}, !- Construction Name
  ExteriorWall,                           !- Intended Surface Type
  Mass;                                   !- Standards Construction Type

OS:Material,
  {bec8fe03-ed19-4d7a-8602-3bb5c4f8c606}, !- Handle
  Wall Insulation [37],                   !- Name
  MediumRough,                            !- Roughness
  0.0680999999999999,                     !- Thickness {m}
  0.0432,                                 !- Conductivity {W/m-K}
  91,                                     !- Density {kg/m3}
  836.999999999999,                       !- Specific Heat {J/kg-K}
  0.9,                                    !- Thermal Absorptance
  0.5,                                    !- Solar Absorptance
  0.5;                                    !- Visible Absorptance

OS:Construction,
  {2383c6d1-277e-4e2a-bf42-943e11eea9e7}, !- Handle
  ASHRAE 189.1-2009 ExtWall Mass ClimateZone 5, !- Name
  ,                                       !- Surface Rendering Name
  {d0f7707c-f479-4ac2-bdb3-3227572a0278}, !- Layer 1
  {d9797111-353a-48fd-944c-9e81d84e4dbb}, !- Layer 2
  {f5c6efb3-082e-40fc-9141-451beb7bf27c}, !- Layer 3
  {08691391-1716-426b-9e7b-72870bae0aca}; !- Layer 4

OS:StandardsInformation:Construction,
  {20cb461b-17a4-4ac2-8781-002671598522}, !- Handle
  {2383c6d1-277e-4e2a-bf42-943e11eea9e7}, !- Construction Name
  ExteriorWall,                           !- Intended Surface Type
  Mass;                                   !- Standards Construction Type

OS:Material,
  {f5c6efb3-082e-40fc-9141-451beb7bf27c}, !- Handle
  Wall Insulation [40],                   !- Name
  MediumRough,                            !- Roughness
  0.0793999999999999,                     !- Thickness {m}
  0.0432,                                 !- Conductivity {W/m-K}
  91,                                     !- Density {kg/m3}
  836.999999999999,                       !- Specific Heat {J/kg-K}
  0.9,                                    !- Thermal Absorptance
  0.5,                                    !- Solar Absorptance
  0.5;                                    !- Visible Absorptance

OS:Construction,
  {54643551-b468-4b4b-85a1-f0656e147509}, !- Handle
  ASHRAE 189.1-2009 ExtWall Mass ClimateZone 6, !- Name
  ,                                       !- Surface Rendering Name
  {d0f7707c-f479-4ac2-bdb3-3227572a0278}, !- Layer 1
  {d9797111-353a-48fd-944c-9e81d84e4dbb}, !- Layer 2
  {69a3707c-f366-444d-8e6d-6599df57be5f}, !- Layer 3
  {08691391-1716-426b-9e7b-72870bae0aca}; !- Layer 4

OS:StandardsInformation:Construction,
  {d42aa75c-deae-41cb-ae96-b8a35e659784}, !- Handle
  {54643551-b468-4b4b-85a1-f0656e147509}, !- Construction Name
  ExteriorWall,                           !- Intended Surface Type
  Mass;                                   !- Standards Construction Type

OS:Material,
  {69a3707c-f366-444d-8e6d-6599df57be5f}, !- Handle
  Wall Insulation [42],                   !- Name
  MediumRough,                            !- Roughness
  0.0913999999999999,                     !- Thickness {m}
  0.0432,                                 !- Conductivity {W/m-K}
  91,                                     !- Density {kg/m3}
  836.999999999999,                       !- Specific Heat {J/kg-K}
  0.9,                                    !- Thermal Absorptance
  0.5,                                    !- Solar Absorptance
  0.5;                                    !- Visible Absorptance

OS:Construction,
  {21f65890-e9ec-4efb-bc7d-a88e9ba51051}, !- Handle
  ASHRAE 189.1-2009 ExtWall Mass ClimateZone 7-8, !- Name
  ,                                       !- Surface Rendering Name
  {d0f7707c-f479-4ac2-bdb3-3227572a0278}, !- Layer 1
  {d9797111-353a-48fd-944c-9e81d84e4dbb}, !- Layer 2
  {f6816709-dff0-4a39-a64a-a3b6a7cb17ff}, !- Layer 3
  {08691391-1716-426b-9e7b-72870bae0aca}; !- Layer 4

OS:StandardsInformation:Construction,
  {815640ca-b975-4d25-95cf-9328387932f4}, !- Handle
  {21f65890-e9ec-4efb-bc7d-a88e9ba51051}, !- Construction Name
  ExteriorWall,                           !- Intended Surface Type
  Mass;                                   !- Standards Construction Type

OS:Material,
  {f6816709-dff0-4a39-a64a-a3b6a7cb17ff}, !- Handle
  Wall Insulation [44],                   !- Name
  MediumRough,                            !- Roughness
  0.1104,                                 !- Thickness {m}
  0.0432,                                 !- Conductivity {W/m-K}
  91,                                     !- Density {kg/m3}
  836.999999999999,                       !- Specific Heat {J/kg-K}
  0.9,                                    !- Thermal Absorptance
  0.5,                                    !- Solar Absorptance
  0.5;                                    !- Visible Absorptance

OS:Construction,
  {ba83dea4-e317-4ac9-bde9-4bd856fc158c}, !- Handle
  ASHRAE 189.1-2009 ExtWall Mass ClimateZone alt-res 1, !- Name
  ,                                       !- Surface Rendering Name
  {d0f7707c-f479-4ac2-bdb3-3227572a0278}, !- Layer 1
  {d9797111-353a-48fd-944c-9e81d84e4dbb}, !- Layer 2
  {31f85837-9c5d-47bd-9328-777b68c63cc3}, !- Layer 3
  {08691391-1716-426b-9e7b-72870bae0aca}; !- Layer 4

OS:StandardsInformation:Construction,
  {297a88da-0b72-4ba6-af44-3dfea691f582}, !- Handle
  {ba83dea4-e317-4ac9-bde9-4bd856fc158c}, !- Construction Name
  ExteriorWall,                           !- Intended Surface Type
  Mass;                                   !- Standards Construction Type

OS:Construction,
  {37c2945c-8728-490b-8782-7d4dce6f65d6}, !- Handle
  ASHRAE 189.1-2009 ExtWall Mass ClimateZone alt-res 2, !- Name
  ,                                       !- Surface Rendering Name
  {d0f7707c-f479-4ac2-bdb3-3227572a0278}, !- Layer 1
  {d9797111-353a-48fd-944c-9e81d84e4dbb}, !- Layer 2
  {96e83123-328a-4f67-ad75-681344fe1dd4}, !- Layer 3
  {08691391-1716-426b-9e7b-72870bae0aca}; !- Layer 4

OS:StandardsInformation:Construction,
  {64074cd2-bdd2-494b-8807-b60bf7d42f4e}, !- Handle
  {37c2945c-8728-490b-8782-7d4dce6f65d6}, !- Construction Name
  ExteriorWall,                           !- Intended Surface Type
  Mass;                                   !- Standards Construction Type

OS:Construction,
  {1458e1f3-4765-4a9a-b213-14219c2ddd2e}, !- Handle
  ASHRAE 189.1-2009 ExtWall Mass ClimateZone alt-res 3, !- Name
  ,                                       !- Surface Rendering Name
  {d0f7707c-f479-4ac2-bdb3-3227572a0278}, !- Layer 1
  {d9797111-353a-48fd-944c-9e81d84e4dbb}, !- Layer 2
  {bec8fe03-ed19-4d7a-8602-3bb5c4f8c606}, !- Layer 3
  {08691391-1716-426b-9e7b-72870bae0aca}; !- Layer 4

OS:StandardsInformation:Construction,
  {82b3e8bf-0b2f-4471-9d57-27a4a8942835}, !- Handle
  {1458e1f3-4765-4a9a-b213-14219c2ddd2e}, !- Construction Name
  ExteriorWall,                           !- Intended Surface Type
  Mass;                                   !- Standards Construction Type

OS:Construction,
  {c9cabc0e-1ea8-4f22-8c80-b10493bf5578}, !- Handle
  ASHRAE 189.1-2009 ExtWall Mass ClimateZone alt-res 4, !- Name
  ,                                       !- Surface Rendering Name
  {d0f7707c-f479-4ac2-bdb3-3227572a0278}, !- Layer 1
  {d9797111-353a-48fd-944c-9e81d84e4dbb}, !- Layer 2
  {f5c6efb3-082e-40fc-9141-451beb7bf27c}, !- Layer 3
  {08691391-1716-426b-9e7b-72870bae0aca}; !- Layer 4

OS:StandardsInformation:Construction,
  {5464b315-9b37-4936-a76b-7beffee15184}, !- Handle
  {c9cabc0e-1ea8-4f22-8c80-b10493bf5578}, !- Construction Name
  ExteriorWall,                           !- Intended Surface Type
  Mass;                                   !- Standards Construction Type

OS:Construction,
  {c12257d5-e6d5-4dae-b775-fadbf3f55052}, !- Handle
  ASHRAE 189.1-2009 ExtWall Mass ClimateZone alt-res 5, !- Name
  ,                                       !- Surface Rendering Name
  {d0f7707c-f479-4ac2-bdb3-3227572a0278}, !- Layer 1
  {d9797111-353a-48fd-944c-9e81d84e4dbb}, !- Layer 2
  {69a3707c-f366-444d-8e6d-6599df57be5f}, !- Layer 3
  {08691391-1716-426b-9e7b-72870bae0aca}; !- Layer 4

OS:StandardsInformation:Construction,
  {bfb0f860-6032-4a19-99a8-2a3a7db8edeb}, !- Handle
  {c12257d5-e6d5-4dae-b775-fadbf3f55052}, !- Construction Name
  ExteriorWall,                           !- Intended Surface Type
  Mass;                                   !- Standards Construction Type

OS:Construction,
  {755cb677-b939-418c-8c68-09739fa33e24}, !- Handle
  ASHRAE 189.1-2009 ExtWall Mass ClimateZone alt-res 6, !- Name
  ,                                       !- Surface Rendering Name
  {d0f7707c-f479-4ac2-bdb3-3227572a0278}, !- Layer 1
  {d9797111-353a-48fd-944c-9e81d84e4dbb}, !- Layer 2
  {f6816709-dff0-4a39-a64a-a3b6a7cb17ff}, !- Layer 3
  {08691391-1716-426b-9e7b-72870bae0aca}; !- Layer 4

OS:StandardsInformation:Construction,
  {c6f7bd25-a1d9-4812-85c2-5bc721831fdd}, !- Handle
  {755cb677-b939-418c-8c68-09739fa33e24}, !- Construction Name
  ExteriorWall,                           !- Intended Surface Type
  Mass;                                   !- Standards Construction Type

OS:Construction,
  {cd9444d2-9f5c-4f43-90f3-edb01b3b5d7e}, !- Handle
  ASHRAE 189.1-2009 ExtWall Mass ClimateZone alt-res 7, !- Name
  ,                                       !- Surface Rendering Name
  {d0f7707c-f479-4ac2-bdb3-3227572a0278}, !- Layer 1
  {d9797111-353a-48fd-944c-9e81d84e4dbb}, !- Layer 2
  {f6816709-dff0-4a39-a64a-a3b6a7cb17ff}, !- Layer 3
  {08691391-1716-426b-9e7b-72870bae0aca}; !- Layer 4

OS:StandardsInformation:Construction,
  {b237c02a-a331-4ecc-8b2b-7efd38b8ec0d}, !- Handle
  {cd9444d2-9f5c-4f43-90f3-edb01b3b5d7e}, !- Construction Name
  ExteriorWall,                           !- Intended Surface Type
  Mass;                                   !- Standards Construction Type

OS:Construction,
  {54224b71-0ab6-4395-b585-0421bb0a62bc}, !- Handle
  ASHRAE 189.1-2009 ExtWall Mass ClimateZone alt-res 8, !- Name