
OS:Version,
  {28b2c0ef-b5e3-463b-b86c-7c3b93b4a51a}, !- Handle
  1.2.3;                                  !- Version Identifier

OS:Construction,
  {92f640b4-de1e-46a4-a3c8-e12c8bf0bb6a}, !- Handle
  ASHRAE 189.1-2009 AtticFloor ClimateZone 1-8, !- Name
  ,                                       !- Surface Rendering Name
  {fe88d744-3f0b-4d40-8378-8be2b9b0cfe1}, !- Layer 1
  {fb7e6448-5198-4d61-a104-cbaeba375e29}, !- Layer 2
  {fe88d744-3f0b-4d40-8378-8be2b9b0cfe1}; !- Layer 3

OS:StandardsInformation:Construction,
  {d9cc22ba-3390-4b8d-9f42-9d7a79401f51}, !- Handle
  {92f640b4-de1e-46a4-a3c8-e12c8bf0bb6a}, !- Construction Name
  AtticFloor,                             !- Intended Surface Type
  ASHRAE 189.1-2009;                      !- Standards Construction Type

OS:Material,
  {fe88d744-3f0b-4d40-8378-8be2b9b0cfe1}, !- Handle
  1/2IN Gypsum,                           !- Name
  Smooth,                                 !- Roughness
  0.0127,                                 !- Thickness {m}
  0.16,                                   !- Conductivity {W/m-K}
  784.9,                                  !- Density {kg/m3}
  830.000000000001,                       !- Specific Heat {J/kg-K}
  0.9,                                    !- Thermal Absorptance
  0.92,                                   !- Solar Absorptance
  0.92;                                   !- Visible Absorptance

OS:Material,
  {fb7e6448-5198-4d61-a104-cbaeba375e29}, !- Handle
  AtticFloor Insulation,                  !- Name
  MediumRough,                            !- Roughness
  0.2379,                                 !- Thickness {m}
  0.049,                                  !- Conductivity {W/m-K}
  265,                                    !- Density {kg/m3}
  836.800000000001,                       !- Specific Heat {J/kg-K}
  0.9,                                    !- Thermal Absorptance
  0.7,                                    !- Solar Absorptance
  0.7;                                    !- Visible Absorptance

OS:Construction,
  {d1779631-e0e4-497d-8a97-1d802c70864f}, !- Handle
  ASHRAE 189.1-2009 ExtRoof IEAD ClimateZone 1, !- Name
  ,                                       !- Surface Rendering Name
  {6d861107-0cb5-432a-b607-a0d524ede8de}, !- Layer 1
  {9b997119-447d-4771-9a7f-be3d2900a618}, !- Layer 2
  {815607e8-40f4-4015-9a6f-1ffbc98e358f}; !- Layer 3

OS:StandardsInformation:Construction,
  {beae89ab-9278-446e-9a8c-8e15047fae2a}, !- Handle
  {d1779631-e0e4-497d-8a97-1d802c70864f}, !- Construction Name
  ExteriorRoof,                           !- Intended Surface Type
  ASHRAE 189.1-2009;                      !- Standards Construction Type

OS:Material,
  {6d861107-0cb5-432a-b607-a0d524ede8de}, !- Handle
  Roof Membrane,                          !- Name
  VeryRough,                              !- Roughness
  0.0095,                                 !- Thickness {m}
  0.16,                                   !- Conductivity {W/m-K}
  1121.29,                                !- Density {kg/m3}
  1460,                                   !- Specific Heat {J/kg-K}
  0.9,                                    !- Thermal Absorptance
  0.7,                                    !- Solar Absorptance
  0.7;                                    !- Visible Absorptance

OS:Material,
  {9b997119-447d-4771-9a7f-be3d2900a618}, !- Handle
  Roof Insulation [18],                   !- Name
  MediumRough,                            !- Roughness
  0.1693,                                 !- Thickness {m}
  0.049,                                  !- Conductivity {W/m-K}
  265,                                    !- Density {kg/m3}
  836.800000000001,                       !- Specific Heat {J/kg-K}
  0.9,                                    !- Thermal Absorptance
  0.7,                                    !- Solar Absorptance
  0.7;                                    !- Visible Absorptance

OS:Material,
  {815607e8-40f4-4015-9a6f-1ffbc98e358f}, !- Handle
  Metal Decking,                          !- Name
  MediumSmooth,                           !- Roughness
  0.0015,                                 !- Thickness {m}
  45.006,                                 !- Conductivity {W/m-K}
  7680,                                   !- Density {kg/m3}
  418.4,                                  !- Specific Heat {J/kg-K}
  0.9,                                    !- Thermal Absorptance
  0.7,                                    !- Solar Absorptance
  0.3;                                    !- Visible Absorptance

OS:Construction,
  {77b8cdbf-473b-48fa-945a-59966d1ecabb}, !- Handle
  ASHRAE 189.1-2009 ExtRoof IEAD ClimateZone 2-5, !- Name
  ,                                       !- Surface Rendering Name
  {6d861107-0cb5-432a-b607-a0d524ede8de}, !- Layer 1
  {cd093a9e-7ce0-46b4-b640-a70eb6a9add1}, !- Layer 2
  {815607e8-40f4-4015-9a6f-1ffbc98e358f}; !- Layer 3

OS:StandardsInformation:Construction,
  {9e2a3535-e278-4977-89e0-3303314a9553}, !- Handle
  {77b8cdbf-473b-48fa-945a-59966d1ecabb}, !- Construction Name
  ExteriorRoof,                           !- Intended Surface Type
  ASHRAE 189.1-2009;                      !- Standards Construction Type

OS:Material,
  {cd093a9e-7ce0-46b4-b640-a70eb6a9add1}, !- Handle
  Roof Insulation [21],                   !- Name
  MediumRough,                            !- Roughness
  0.2105,                                 !- Thickness {m}
  0.049,                                  !- Conductivity {W/m-K}
  265,                                    !- Density {kg/m3}
  836.800000000001,                       !- Specific Heat {J/kg-K}
  0.9,                                    !- Thermal Absorptance
  0.7,                                    !- Solar Absorptance
  0.7;                                    !- Visible Absorptance

OS:Construction,
  {7a84531c-592b-4bd6-ab77-6a5e70aeca31}, !- Handle
  ASHRAE 189.1-2009 ExtRoof IEAD ClimateZone 6, !- Name
  ,                                       !- Surface Rendering Name
  {6d861107-0cb5-432a-b607-a0d524ede8de}, !- Layer 1
  {015cbe6e-6eab-4ce6-9747-a242dadef690}, !- Layer 2
  {815607e8-40f4-4015-9a6f-1ffbc98e358f}; !- Layer 3

OS:StandardsInformation:Construction,
  {08b71256-81b1-4226-a711-63f53836f134}, !- Handle
  {7a84531c-592b-4bd6-ab77-6a5e70aeca31}, !- Construction Name
  ExteriorRoof,                           !- Intended Surface Type
  ASHRAE 189.1-2009;                      !- Standards Construction Type

OS:Material,
  {015cbe6e-6eab-4ce6-9747-a242dadef690}, !- Handle
  Roof Insulation [24],                   !- Name
  MediumRough,                            !- Roughness
  0.260100000000001,                      !- Thickness {m}
  0.049,                                  !- Conductivity {W/m-K}
  265,                                    !- Density {kg/m3}
  836.800000000001,                       !- Specific Heat {J/kg-K}
  0.9,                                    !- Thermal Absorptance
  0.7,                                    !- Solar Absorptance
  0.7;                                    !- Visible Absorptance

OS:Construction,
  {30b0f62a-2fb3-4e34-997c-1d00e728bd74}, !- Handle
  ASHRAE 189.1-2009 ExtRoof IEAD ClimateZone 7-8, !- Name
  ,                                       !- Surface Rendering Name
  {6d861107-0cb5-432a-b607-a0d524ede8de}, !- Layer 1
  {3ad209d2-7ff2-429c-b2a6-ba4fb5a411f8}, !- Layer 2
  {815607e8-40f4-4015-9a6f-1ffbc98e358f}; !- Layer 3

OS:StandardsInformation:Construction,
  {8abc7d1a-72ce-44fb-821d-15b6e39eade2}, !- Handle
  {30b0f62a-2fb3-4e34-997c-1d00e728bd74}, !- Construction Name
  ExteriorRoof,                           !- Intended Surface Type
  ASHRAE 189.1-2009;                      !- Standards Construction Type

OS:Material,
  {3ad209d2-7ff2-429c-b2a6-ba4fb5a411f8}, !- Handle
  Roof Insulation [26],                   !- Name
  MediumRough,                            !- Roughness
  0.2941,                                 !- Thickness {m}
  0.049,                                  !- Conductivity {W/m-K}
  265,                                    !- Density {kg/m3}
  836.800000000001,                       !- Specific Heat {J/kg-K}
  0.9,                                    !- Thermal Absorptance
  0.7,                                    !- Solar Absorptance
  0.7;                                    !- Visible Absorptance

OS:Construction,
  {b1a5d5a5-fa90-4b98-adfa-41e6538502e0}, !- Handle
  ASHRAE 189.1-2009 ExtRoof Metal ClimateZone 1, !- Name
  ,                                       !- Surface Rendering Name
  {c705335e-4fda-433b-9479-5f8fb55ab9b4}, !- Layer 1
  {9a723553-36ba-46ef-93fd-e09309dc391c}; !- Layer 2

OS:StandardsInformation:Construction,
  {6813fe2d-a419-49cb-aaec-610874c72673}, !- Handle
  {b1a5d5a5-fa90-4b98-adfa-41e6538502e0}, !- Construction Name
  ExteriorRoof,                           !- Intended Surface Type
  ASHRAE 189.1-2009;                      !- Standards Construction Type

OS:Material,
  {c705335e-4fda-433b-9479-5f8fb55ab9b4}, !- Handle
  Metal Roofing,                          !- Name
  MediumSmooth,                           !- Roughness
  0.0015,                                 !- Thickness {m}
  45.006,                                 !- Conductivity {W/m-K}
  7680,                                   !- Density {kg/m3}
  418.4,                                  !- Specific Heat {J/kg-K}
  0.9,                                    !- Thermal Absorptance
  0.3,                                    !- Solar Absorptance
  0.3;                                    !- Visible Absorptance

OS:Material,
  {9a723553-36ba-46ef-93fd-e09309dc391c}, !- Handle
  Roof Insulation [19],                   !- Name
  MediumRough,                            !- Roughness
  0.1868,                                 !- Thickness {m}
  0.049,                                  !- Conductivity {W/m-K}
  265,                                    !- Density {kg/m3}
  836.800000000001,                       !- Specific Heat {J/kg-K}
  0.9,                                    !- Thermal Absorptance
  0.7,                                    !- Solar Absorptance
  0.7;                                    !- Visible Absorptance

OS:Construction,
  {63ea223e-90ed-459b-9418-842f54609598}, !- Handle
  ASHRAE 189.1-2009 ExtRoof Metal ClimateZone 2-5, !- Name
  ,                                       !- Surface Rendering Name
  {c705335e-4fda-433b-9479-5f8fb55ab9b4}, !- Layer 1
  {d1b38d3d-0219-46b1-92b7-b060bee8f5d1}; !- Layer 2

OS:StandardsInformation:Construction,
  {6c548d73-650c-438d-a204-7e5c0975f83a}, !- Handle
  {63ea223e-90ed-459b-9418-842f54609598}, !- Construction Name
  ExteriorRoof,                           !- Intended Surface Type
  ASHRAE 189.1-2009;                      !- Standards Construction Type

OS:Material,
  {d1b38d3d-0219-46b1-92b7-b060bee8f5d1}, !- Handle
  Roof Insulation [22],                   !- Name
  MediumRough,                            !- Roughness
  0.2358,                                 !- Thickness {m}
  0.049,                                  !- Conductivity {W/m-K}
  265,                                    !- Density {kg/m3}
  836.800000000001,                       !- Specific Heat {J/kg-K}
  0.9,                                    !- Thermal Absorptance
  0.7,                                    !- Solar Absorptance
  0.7;                                    !- Visible Absorptance

OS:Construction,
  {704baa85-8c39-415f-a985-164fbe4692c4}, !- Handle
  ASHRAE 189.1-2009 ExtRoof Metal ClimateZone 6, !- Name
  ,                                       !- Surface Rendering Name
  {c705335e-4fda-433b-9479-5f8fb55ab9b4}, !- Layer 1
  {a27108e4-797f-4746-86d4-e27fae76bd1d}; !- Layer 2

OS:StandardsInformation:Construction,
  {a3ed5cf1-f1cf-43d3-8da3-439547052431}, !- Handle
  {704baa85-8c39-415f-a985-164fbe4692c4}, !- Construction Name
  ExteriorRoof,                           !- Intended Surface Type
  ASHRAE 189.1-2009;                      !- Standards Construction Type

OS:Material,
  {a27108e4-797f-4746-86d4-e27fae76bd1d}, !- Handle
  Roof Insulation [25],                   !- Name
  MediumRough,                            !- Roughness
  0.263,                                  !- Thickness {m}
  0.049,                                  !- Conductivity {W/m-K}
  265,                                    !- Density {kg/m3}
  836.800000000001,                       !- Specific Heat {J/kg-K}
  0.9,                                    !- Thermal Absorptance
  0.7,                                    !- Solar Absorptance
  0.7;                                    !- Visible Absorptance

OS:Construction,
  {4ad87e80-9cd8-4acb-a6d6-4617d08f529d}, !- Handle
  ASHRAE 189.1-2009 ExtRoof Metal ClimateZone 7-8, !- Name
  ,                                       !- Surface Rendering Name
  {c705335e-4fda-433b-9479-5f8fb55ab9b4}, !- Layer 1
  {25d0c8c8-2edb-48ef-8fd9-5c8a9f66dddd}; !- Layer 2

OS:StandardsInformation:Construction,
  {f9187851-b583-4e1b-b0e3-f0153e7cbe35}, !- Handle
  {4ad87e80-9cd8-4acb-a6d6-4617d08f529d}, !- Construction Name
  ExteriorRoof,                           !- Intended Surface Type
  ASHRAE 189.1-2009;                      !- Standards Construction Type

OS:Material,
  {25d0c8c8-2edb-48ef-8fd9-5c8a9f66dddd}, !- Handle
  Roof Insulation [27],                   !- Name
  MediumRough,                            !- Roughness
  0.297000000000001,                      !- Thickness {m}
  0.049,                                  !- Conductivity {W/m-K}
  265,                                    !- Density {kg/m3}
  836.800000000001,                       !- Specific Heat {J/kg-K}
  0.9,                                    !- Thermal Absorptance
  0.7,                                    !- Solar Absorptance
  0.7;                                    !- Visible Absorptance

OS:Construction,
  {c6f157d6-a130-439c-bebc-ddf80a78987a}, !- Handle
  ASHRAE 189.1-2009 ExtWall Mass ClimateZone 1, !- Name
  ,                                       !- Surface Rendering Name
  {ed415a2b-ab22-4cb2-ae42-6af6352cda04}, !- Layer 1
  {47cddd3c-97f1-4b06-8f67-576f8a128869}, !- Layer 2
  {ee4ade4d-d856-48e5-9bda-7a583d19adad}, !- Layer 3
  {fe88d744-3f0b-4d40-8378-8be2b9b0cfe1}; !- Layer 4

OS:StandardsInformation:Construction,
  {d0f30583-3762-4f5f-ba28-a0b9d3e1678f}, !- Handle
  {c6f157d6-a130-439c-bebc-ddf80a78987a}, !- Construction Name
  ExteriorWall,                           !- Intended Surface Type
  ASHRAE 189.1-2009;                      !- Standards Construction Type

OS:Material,
  {ed415a2b-ab22-4cb2-ae42-6af6352cda04}, !- Handle
  1IN Stucco,                             !- Name
  Smooth,                                 !- Roughness
  0.0253,                                 !- Thickness {m}
  0.691799999999999,                      !- Conductivity {W/m-K}
  1858,                                   !- Density {kg/m3}
  836.999999999999,                       !- Specific Heat {J/kg-K}
  0.9,                                    !- Thermal Absorptance
  0.92,                                   !- Solar Absorptance
  0.92;                                   !- Visible Absorptance

OS:Material,
  {47cddd3c-97f1-4b06-8f67-576f8a128869}, !- Handle
  8IN Concrete HW,                        !- Name
  MediumRough,                            !- Roughness
  0.2033,                                 !- Thickness {m}
  1.72959999999999,                       !- Conductivity {W/m-K}
  2242.99999999999,                       !- Density {kg/m3}
  836.999999999999,                       !- Specific Heat {J/kg-K}
  0.9,                                    !- Thermal Absorptance
  0.65,                                   !- Solar Absorptance
  0.65;                                   !- Visible Absorptance

OS:Material,
  {ee4ade4d-d856-48e5-9bda-7a583d19adad}, !- Handle
  Wall Insulation [31],                   !- Name
  MediumRough,                            !- Roughness
  0.0337000000000001,                     !- Thickness {m}
  0.0432,                                 !- Conductivity {W/m-K}
  91,                                     !- Density {kg/m3}
  836.999999999999,                       !- Specific Heat {J/kg-K}
  0.9,                                    !- Thermal Absorptance
  0.5,                                    !- Solar Absorptance
  0.5;                                    !- Visible Absorptance

OS:Construction,
  {1c0c53a2-d7bf-4e74-a7f4-1195300f6a26}, !- Handle
  ASHRAE 189.1-2009 ExtWall Mass ClimateZone 2, !- Name
  ,                                       !- Surface Rendering Name
  {ed415a2b-ab22-4cb2-ae42-6af6352cda04}, !- Layer 1
  {47cddd3c-97f1-4b06-8f67-576f8a128869}, !- Layer 2
  {8a0198e4-9e38-4007-89a1-afa0ad021b8e}, !- Layer 3
  {fe88d744-3f0b-4d40-8378-8be2b9b0cfe1}; !- Layer 4

OS:StandardsInformation:Construction,
  {15f97528-34c7-408f-86e0-cf1543dc51ee}, !- Handle
  {1c0c53a2-d7bf-4e74-a7f4-1195300f6a26}, !- Construction Name
  ExteriorWall,                           !- Intended Surface Type
  ASHRAE 189.1-2009;                      !- Standards Construction Type

OS:Material,
  {8a0198e4-9e38-4007-89a1-afa0ad021b8e}, !- Handle
  Wall Insulation [35],                   !- Name
  MediumRough,                            !- Roughness
  0.0452,                                 !- Thickness {m}
  0.0432,                                 !- Conductivity {W/m-K}
  91,                                     !- Density {kg/m3}
  836.999999999999,                       !- Specific Heat {J/kg-K}
  0.9,                                    !- Thermal Absorptance
  0.5,                                    !- Solar Absorptance
  0.5;                                    !- Visible Absorptance

OS:Construction,
  {a8a4999e-06b2-49b3-9148-6a44fdbc9862}, !- Handle
  ASHRAE 189.1-2009 ExtWall Mass ClimateZone 3, !- Name
  ,                                       !- Surface Rendering Name
  {ed415a2b-ab22-4cb2-ae42-6af6352cda04}, !- Layer 1
  {47cddd3c-97f1-4b06-8f67-576f8a128869}, !- Layer 2
  {8a20fdfb-f68d-4909-8b15-0e415aafda27}, !- Layer 3
  {fe88d744-3f0b-4d40-8378-8be2b9b0cfe1}; !- Layer 4

OS:StandardsInformation:Construction,
  {70a0c425-90a9-4902-a400-c138bf904e19}, !- Handle
  {a8a4999e-06b2-49b3-9148-6a44fdbc9862}, !- Construction Name
  ExteriorWall,                           !- Intended Surface Type
  ASHRAE 189.1-2009;                      !- Standards Construction Type

OS:Material,
  {8a20fdfb-f68d-4909-8b15-0e415aafda27}, !- Handle
  Wall Insulation [36],                   !- Name
  MediumRough,                            !- Roughness
  0.0565999999999999,                     !- Thickness {m}
  0.0432,                                 !- Conductivity {W/m-K}
  91,                                     !- Density {kg/m3}
  836.999999999999,                       !- Specific Heat {J/kg-K}
  0.9,                                    !- Thermal Absorptance
  0.5,                                    !- Solar Absorptance
  0.5;                                    !- Visible Absorptance

OS:Construction,
  {7cffed3e-202a-4bec-b052-15742e281e74}, !- Handle
  ASHRAE 189.1-2009 ExtWall Mass ClimateZone 4, !- Name
  ,                                       !- Surface Rendering Name
  {ed415a2b-ab22-4cb2-ae42-6af6352cda04}, !- Layer 1
  {47cddd3c-97f1-4b06-8f67-576f8a128869}, !- Layer 2
  {2c7eb93b-31a7-4250-9d01-3933824280b5}, !- Layer 3
  {fe88d744-3f0b-4d40-8378-8be2b9b0cfe1}; !- Layer 4

OS:StandardsInformation:Construction,
  {2bdf3433-c0f1-4698-81aa-8e227dad1426}, !- Handle
  {7cffed3e-202a-4bec-b052-15742e281e74}, !- Construction Name
  ExteriorWall,                           !- Intended Surface Type
  ASHRAE 189.1-2009;                      !- Standards Construction Type

OS:Material,
  {2c7eb93b-31a7-4250-9d01-3933824280b5}, !- Handle
  Wall Insulation [37],                   !- Name
  MediumRough,                            !- Roughness
  0.0680999999999999,                     !- Thickness {m}
  0.0432,                                 !- Conductivity {W/m-K}
  91,                                     !- Density {kg/m3}
  836.999999999999,                       !- Specific Heat {J/kg-K}
  0.9,                                    !- Thermal Absorptance
  0.5,                                    !- Solar Absorptance
  0.5;                                    !- Visible Absorptance

OS:Construction,
  {2a4af3ce-e8f7-4805-a6ee-5cc0ef80b894}, !- Handle
  ASHRAE 189.1-2009 ExtWall Mass ClimateZone 5, !- Name
  ,                                       !- Surface Rendering Name
  {ed415a2b-ab22-4cb2-ae42-6af6352cda04}, !- Layer 1
  {47cddd3c-97f1-4b06-8f67-576f8a128869}, !- Layer 2
  {cf31cdce-c1c9-4088-ac75-84a09c9da3f7}, !- Layer 3
  {fe88d744-3f0b-4d40-8378-8be2b9b0cfe1}; !- Layer 4

OS:StandardsInformation:Construction,
  {f8e6ee7a-db30-4deb-bc62-0cdb3d978bc4}, !- Handle
  {2a4af3ce-e8f7-4805-a6ee-5cc0ef80b894}, !- Construction Name
  ExteriorWall,                           !- Intended Surface Type
  ASHRAE 189.1-2009;                      !- Standards Construction Type

OS:Material,
  {cf31cdce-c1c9-4088-ac75-84a09c9da3f7}, !- Handle
  Wall Insulation [40],                   !- Name
  MediumRough,                            !- Roughness
  0.0793999999999999,                     !- Thickness {m}
  0.0432,                                 !- Conductivity {W/m-K}
  91,                                     !- Density {kg/m3}
  836.999999999999,                       !- Specific Heat {J/kg-K}
  0.9,                                    !- Thermal Absorptance
  0.5,                                    !- Solar Absorptance
  0.5;                                    !- Visible Absorptance

OS:Construction,
  {5c718746-8559-42d1-bdf4-bff48fbd2438}, !- Handle
  ASHRAE 189.1-2009 ExtWall Mass ClimateZone 6, !- Name
  ,                                       !- Surface Rendering Name
  {ed415a2b-ab22-4cb2-ae42-6af6352cda04}, !- Layer 1
  {47cddd3c-97f1-4b06-8f67-576f8a128869}, !- Layer 2
  {89c6077d-d313-428b-a5e9-6db0510ceab3}, !- Layer 3
  {fe88d744-3f0b-4d40-8378-8be2b9b0cfe1}; !- Layer 4

OS:StandardsInformation:Construction,
  {c7618ec4-827d-42fc-b851-019e051d3643}, !- Handle
  {5c718746-8559-42d1-bdf4-bff48fbd2438}, !- Construction Name
  ExteriorWall,                           !- Intended Surface Type
  ASHRAE 189.1-2009;                      !- Standards Construction Type

OS:Material,
  {89c6077d-d313-428b-a5e9-6db0510ceab3}, !- Handle
  Wall Insulation [42],                   !- Name
  MediumRough,                            !- Roughness
  0.0913999999999999,                     !- Thickness {m}
  0.0432,                                 !- Conductivity {W/m-K}
  91,                                     !- Density {kg/m3}
  836.999999999999,                       !- Specific Heat {J/kg-K}
  0.9,                                    !- Thermal Absorptance
  0.5,                                    !- Solar Absorptance
  0.5;                                    !- Visible Absorptance

OS:Construction,
  {ad46d7f6-1924-49fb-82f4-fb15d9ab27de}, !- Handle
  ASHRAE 189.1-2009 ExtWall Mass ClimateZone 7-8, !- Name
  ,                                       !- Surface Rendering Name
  {ed415a2b-ab22-4cb2-ae42-6af6352cda04}, !- Layer 1
  {47cddd3c-97f1-4b06-8f67-576f8a128869}, !- Layer 2
  {38cf37f2-38de-4799-a2ba-0b1ad8817f66}, !- Layer 3
  {fe88d744-3f0b-4d40-8378-8be2b9b0cfe1}; !- Layer 4

OS:StandardsInformation:Construction,
  {a09605cf-df3a-4f44-a1bb-74bdf029c4dc}, !- Handle
  {ad46d7f6-1924-49fb-82f4-fb15d9ab27de}, !- Construction Name
  ExteriorWall,                           !- Intended Surface Type
  ASHRAE 189.1-2009;                      !- Standards Construction Type

OS:Material,
  {38cf37f2-38de-4799-a2ba-0b1ad8817f66}, !- Handle
  Wall Insulation [44],                   !- Name
  MediumRough,                            !- Roughness
  0.1104,                                 !- Thickness {m}
  0.0432,                                 !- Conductivity {W/m-K}
  91,                                     !- Density {kg/m3}
  836.999999999999,                       !- Specific Heat {J/kg-K}
  0.9,                                    !- Thermal Absorptance
  0.5,                                    !- Solar Absorptance
  0.5;                                    !- Visible Absorptance

OS:Construction,
  {5c2d7f88-de6e-4c9c-8ff2-d423cdf639c7}, !- Handle
  ASHRAE 189.1-2009 ExtWall Mass ClimateZone alt-res 1, !- Name
  ,                                       !- Surface Rendering Name
  {ed415a2b-ab22-4cb2-ae42-6af6352cda04}, !- Layer 1
  {47cddd3c-97f1-4b06-8f67-576f8a128869}, !- Layer 2
  {8a0198e4-9e38-4007-89a1-afa0ad021b8e}, !- Layer 3
  {fe88d744-3f0b-4d40-8378-8be2b9b0cfe1}; !- Layer 4

OS:StandardsInformation:Construction,
  {abfbacfb-1e41-469f-bd13-deb4a2501a76}, !- Handle
  {5c2d7f88-de6e-4c9c-8ff2-d423cdf639c7}, !- Construction Name
  ExteriorWall,                           !- Intended Surface Type
  ASHRAE 189.1-2009;                      !- Standards Construction Type

OS:Construction,
  {c0fbf28b-4e46-4ea1-803a-f254ffd34981}, !- Handle
  ASHRAE 189.1-2009 ExtWall Mass ClimateZone alt-res 2, !- Name
  ,                                       !- Surface Rendering Name
  {ed415a2b-ab22-4cb2-ae42-6af6352cda04}, !- Layer 1
  {47cddd3c-97f1-4b06-8f67-576f8a128869}, !- Layer 2
  {8a20fdfb-f68d-4909-8b15-0e415aafda27}, !- Layer 3
  {fe88d744-3f0b-4d40-8378-8be2b9b0cfe1}; !- Layer 4

OS:StandardsInformation:Construction,
  {bebc71ee-92f2-46ce-984e-5cae94958067}, !- Handle
  {c0fbf28b-4e46-4ea1-803a-f254ffd34981}, !- Construction Name
  ExteriorWall,                           !- Intended Surface Type
  ASHRAE 189.1-2009;                      !- Standards Construction Type

OS:Construction,
  {f896e43a-bf3c-4a1c-8375-b455169576b5}, !- Handle
  ASHRAE 189.1-2009 ExtWall Mass ClimateZone alt-res 3, !- Name
  ,                                       !- Surface Rendering Name
  {ed415a2b-ab22-4cb2-ae42-6af6352cda04}, !- Layer 1
  {47cddd3c-97f1-4b06-8f67-576f8a128869}, !- Layer 2
  {2c7eb93b-31a7-4250-9d01-3933824280b5}, !- Layer 3
  {fe88d744-3f0b-4d40-8378-8be2b9b0cfe1}; !- Layer 4

OS:StandardsInformation:Construction,
  {34dbd7f9-8816-49c4-b4f2-8514283daae9}, !- Handle
  {f896e43a-bf3c-4a1c-8375-b455169576b5}, !- Construction Name
  ExteriorWall,                           !- Intended Surface Type
  ASHRAE 189.1-2009;                      !- Standards Construction Type

OS:Construction,
  {3b7f1a27-216d-4895-8c5d-cd85efc6c271}, !- Handle
  ASHRAE 189.1-2009 ExtWall Mass ClimateZone alt-res 4, !- Name
  ,                                       !- Surface Rendering Name
  {ed415a2b-ab22-4cb2-ae42-6af6352cda04}, !- Layer 1
  {47cddd3c-97f1-4b06-8f67-576f8a128869}, !- Layer 2
  {cf31cdce-c1c9-4088-ac75-84a09c9da3f7}, !- Layer 3
  {fe88d744-3f0b-4d40-8378-8be2b9b0cfe1}; !- Layer 4

OS:StandardsInformation:Construction,
  {a6544bbb-8ab0-402a-9de4-edda10c86bed}, !- Handle
  {3b7f1a27-216d-4895-8c5d-cd85efc6c271}, !- Construction Name
  ExteriorWall,                           !- Intended Surface Type
  ASHRAE 189.1-2009;                      !- Standards Construction Type

OS:Construction,
  {ecc4362a-93aa-462d-9f9d-5a113d3a8c63}, !- Handle
  ASHRAE 189.1-2009 ExtWall Mass ClimateZone alt-res 5, !- Name
  ,                                       !- Surface Rendering Name
  {ed415a2b-ab22-4cb2-ae42-6af6352cda04}, !- Layer 1
  {47cddd3c-97f1-4b06-8f67-576f8a128869}, !- Layer 2
  {89c6077d-d313-428b-a5e9-6db0510ceab3}, !- Layer 3
  {fe88d744-3f0b-4d40-8378-8be2b9b0cfe1}; !- Layer 4

OS:StandardsInformation:Construction,
  {66986ee6-75ba-4777-9bf7-50ca1d79bdd7}, !- Handle
  {ecc4362a-93aa-462d-9f9d-5a113d3a8c63}, !- Construction Name
  ExteriorWall,                           !- Intended Surface Type
  ASHRAE 189.1-2009;                      !- Standards Construction Type

OS:Construction,
  {c0a2aede-6af5-4010-9424-cf187c2fa311}, !- Handle
  ASHRAE 189.1-2009 ExtWall Mass ClimateZone alt-res 6, !- Name
  ,                                       !- Surface Rendering Name
  {ed415a2b-ab22-4cb2-ae42-6af6352cda04}, !- Layer 1
  {47cddd3c-97f1-4b06-8f67-576f8a128869}, !- Layer 2
  {38cf37f2-38de-4799-a2ba-0b1ad8817f66}, !- Layer 3
  {fe88d744-3f0b-4d40-8378-8be2b9b0cfe1}; !- Layer 4

OS:StandardsInformation:Construction,
  {62932922-06eb-4de5-bd67-bc8ceb922826}, !- Handle
  {c0a2aede-6af5-4010-9424-cf187c2fa311}, !- Construction Name
  ExteriorWall,                           !- Intended Surface Type
  ASHRAE 189.1-2009;                      !- Standards Construction Type

OS:Construction,
  {1cd865c5-0239-4eee-b61c-55506ee563b1}, !- Handle
  ASHRAE 189.1-2009 ExtWall Mass ClimateZone alt-res 7, !- Name
  ,                                       !- Surface Rendering Name
  {ed415a2b-ab22-4cb2-ae42-6af6352cda04}, !- Layer 1
  {47cddd3c-97f1-4b06-8f67-576f8a128869}, !- Layer 2
  {38cf37f2-38de-4799-a2ba-0b1ad8817f66}, !- Layer 3
  {fe88d744-3f0b-4d40-8378-8be2b9b0cfe1}; !- Layer 4

OS:StandardsInformation:Construction,
  {456f7ae8-a35c-4f3b-bfd1-cab111426120}, !- Handle
  {1cd865c5-0239-4eee-b61c-55506ee563b1}, !- Construction Name
  ExteriorWall,                           !- Intended Surface Type
  ASHRAE 189.1-2009;                      !- Standards Construction Type

OS:Construction,
  {4d3e5926-5247-4972-9e07-e32eed8ca152}, !- Handle
  ASHRAE 189.1-2009 ExtWall Mass ClimateZone alt-res 8, !- Name