
OS:Version,
  {ee620c05-5858-4d2b-900c-95295855bd0b}, !- Handle
  1.3.0;                                  !- Version Identifier

OS:Construction,
  {d884731f-6c29-4857-9513-7cff0f20a6dd}, !- Handle
  ASHRAE 189.1-2009 AtticFloor ClimateZone 1-8, !- Name
  ,                                       !- Surface Rendering Name
  {010bf6f9-2cae-4f46-aac3-e70a511fdea2}, !- Layer 1
  {7d3bbe5f-46e7-40f9-87b3-cd0b37bbc047}, !- Layer 2
  {010bf6f9-2cae-4f46-aac3-e70a511fdea2}; !- Layer 3

OS:StandardsInformation:Construction,
  {73dd0619-1aee-4e15-bee4-21c42875c0b5}, !- Handle
  {d884731f-6c29-4857-9513-7cff0f20a6dd}, !- Construction Name
  AtticFloor,                             !- Intended Surface Type
  WoodFramed;                             !- Standards Construction Type

OS:Material,
  {010bf6f9-2cae-4f46-aac3-e70a511fdea2}, !- Handle
  1/2IN Gypsum,                           !- Name
  Smooth,                                 !- Roughness
  0.0127,                                 !- Thickness {m}
  0.16,                                   !- Conductivity {W/m-K}
  784.9,                                  !- Density {kg/m3}
  830.000000000001,                       !- Specific Heat {J/kg-K}
  0.9,                                    !- Thermal Absorptance
  0.92,                                   !- Solar Absorptance
  0.92;                                   !- Visible Absorptance

OS:Material,
  {7d3bbe5f-46e7-40f9-87b3-cd0b37bbc047}, !- Handle
  AtticFloor Insulation,                  !- Name
  MediumRough,                            !- Roughness
  0.2379,                                 !- Thickness {m}
  0.049,                                  !- Conductivity {W/m-K}
  265,                                    !- Density {kg/m3}
  836.800000000001,                       !- Specific Heat {J/kg-K}
  0.9,                                    !- Thermal Absorptance
  0.7,                                    !- Solar Absorptance
  0.7;                                    !- Visible Absorptance

OS:Construction,
  {30015223-3361-42e1-aafb-6531cf126eba}, !- Handle
  ASHRAE 189.1-2009 ExtRoof IEAD ClimateZone 1, !- Name
  ,                                       !- Surface Rendering Name
  {750056c7-82e8-4c75-9e12-355afb8777e9}, !- Layer 1
  {8a2e0954-74ed-4d5e-a2a7-824a610fcdc7}, !- Layer 2
  {b95645fa-45f2-4eee-b45c-ffdddf1413b2}; !- Layer 3

OS:StandardsInformation:Construction,
  {08b69412-8cb5-4213-bb5c-90bdc4031cda}, !- Handle
  {30015223-3361-42e1-aafb-6531cf126eba}, !- Construction Name
  ExteriorRoof,                           !- Intended Surface Type
  IEAD;                                   !- Standards Construction Type

OS:Material,
  {750056c7-82e8-4c75-9e12-355afb8777e9}, !- Handle
  Roof Membrane,                          !- Name
  VeryRough,                              !- Roughness
  0.0095,                                 !- Thickness {m}
  0.16,                                   !- Conductivity {W/m-K}
  1121.29,                                !- Density {kg/m3}
  1460,                                   !- Specific Heat {J/kg-K}
  0.9,                                    !- Thermal Absorptance
  0.7,                                    !- Solar Absorptance
  0.7;                                    !- Visible Absorptance

OS:Material,
  {8a2e0954-74ed-4d5e-a2a7-824a610fcdc7}, !- Handle
  Roof Insulation [18],                   !- Name
  MediumRough,                            !- Roughness
  0.1693,                                 !- Thickness {m}
  0.049,                                  !- Conductivity {W/m-K}
  265,                                    !- Density {kg/m3}
  836.800000000001,                       !- Specific Heat {J/kg-K}
  0.9,                                    !- Thermal Absorptance
  0.7,                                    !- Solar Absorptance
  0.7;                                    !- Visible Absorptance

OS:Material,
  {b95645fa-45f2-4eee-b45c-ffdddf1413b2}, !- Handle
  Metal Decking,                          !- Name
  MediumSmooth,                           !- Roughness
  0.0015,                                 !- Thickness {m}
  45.006,                                 !- Conductivity {W/m-K}
  7680,                                   !- Density {kg/m3}
  418.4,                                  !- Specific Heat {J/kg-K}
  0.9,                                    !- Thermal Absorptance
  0.7,                                    !- Solar Absorptance
  0.3;                                    !- Visible Absorptance

OS:Construction,
  {fa9952ac-2ee8-4fdd-b0c9-c586b43c156e}, !- Handle
  ASHRAE 189.1-2009 ExtRoof IEAD ClimateZone 2-5, !- Name
  ,                                       !- Surface Rendering Name
  {750056c7-82e8-4c75-9e12-355afb8777e9}, !- Layer 1
  {c76d6abd-6504-4704-9fbd-e24ea950f3ee}, !- Layer 2
  {b95645fa-45f2-4eee-b45c-ffdddf1413b2}; !- Layer 3

OS:StandardsInformation:Construction,
  {c74598ef-fa90-4c9d-ad8c-7787cf7ef128}, !- Handle
  {fa9952ac-2ee8-4fdd-b0c9-c586b43c156e}, !- Construction Name
  ExteriorRoof,                           !- Intended Surface Type
  IEAD;                                   !- Standards Construction Type

OS:Material,
  {c76d6abd-6504-4704-9fbd-e24ea950f3ee}, !- Handle
  Roof Insulation [21],                   !- Name
  MediumRough,                            !- Roughness
  0.2105,                                 !- Thickness {m}
  0.049,                                  !- Conductivity {W/m-K}
  265,                                    !- Density {kg/m3}
  836.800000000001,                       !- Specific Heat {J/kg-K}
  0.9,                                    !- Thermal Absorptance
  0.7,                                    !- Solar Absorptance
  0.7;                                    !- Visible Absorptance

OS:Construction,
  {2dc48d3d-b12f-4df9-aab9-aee7594cdee1}, !- Handle
  ASHRAE 189.1-2009 ExtRoof IEAD ClimateZone 6, !- Name
  ,                                       !- Surface Rendering Name
  {750056c7-82e8-4c75-9e12-355afb8777e9}, !- Layer 1
  {a9e2b6db-a043-450f-916e-283ac17d4eb5}, !- Layer 2
  {b95645fa-45f2-4eee-b45c-ffdddf1413b2}; !- Layer 3

OS:StandardsInformation:Construction,
  {964b085f-7f76-4d08-9c9a-9839c2674427}, !- Handle
  {2dc48d3d-b12f-4df9-aab9-aee7594cdee1}, !- Construction Name
  ExteriorRoof,                           !- Intended Surface Type
  IEAD;                                   !- Standards Construction Type

OS:Material,
  {a9e2b6db-a043-450f-916e-283ac17d4eb5}, !- Handle
  Roof Insulation [24],                   !- Name
  MediumRough,                            !- Roughness
  0.260100000000001,                      !- Thickness {m}
  0.049,                                  !- Conductivity {W/m-K}
  265,                                    !- Density {kg/m3}
  836.800000000001,                       !- Specific Heat {J/kg-K}
  0.9,                                    !- Thermal Absorptance
  0.7,                                    !- Solar Absorptance
  0.7;                                    !- Visible Absorptance

OS:Construction,
  {23497a77-299d-444f-8a8d-feb222811196}, !- Handle
  ASHRAE 189.1-2009 ExtRoof IEAD ClimateZone 7-8, !- Name
  ,                                       !- Surface Rendering Name
  {750056c7-82e8-4c75-9e12-355afb8777e9}, !- Layer 1
  {5a289ac1-3bb2-434e-9166-cb306389250d}, !- Layer 2
  {b95645fa-45f2-4eee-b45c-ffdddf1413b2}; !- Layer 3

OS:StandardsInformation:Construction,
  {521734c9-cd4b-4836-bcd5-59dacd139f30}, !- Handle
  {23497a77-299d-444f-8a8d-feb222811196}, !- Construction Name
  ExteriorRoof,                           !- Intended Surface Type
  IEAD;                                   !- Standards Construction Type

OS:Material,
  {5a289ac1-3bb2-434e-9166-cb306389250d}, !- Handle
  Roof Insulation [26],                   !- Name
  MediumRough,                            !- Roughness
  0.2941,                                 !- Thickness {m}
  0.049,                                  !- Conductivity {W/m-K}
  265,                                    !- Density {kg/m3}
  836.800000000001,                       !- Specific Heat {J/kg-K}
  0.9,                                    !- Thermal Absorptance
  0.7,                                    !- Solar Absorptance
  0.7;                                    !- Visible Absorptance

OS:Construction,
  {c6edb4fb-1bd6-40d4-8f5f-987317148d73}, !- Handle
  ASHRAE 189.1-2009 ExtRoof Metal ClimateZone 1, !- Name
  ,                                       !- Surface Rendering Name
  {12730646-fa45-4b7f-92f8-a1384db26562}, !- Layer 1
  {c6ca876f-86aa-4433-9eac-bd89d0ac6d89}; !- Layer 2

OS:StandardsInformation:Construction,
  {5d5437e5-742b-4d96-a5b8-bd6259353d05}, !- Handle
  {c6edb4fb-1bd6-40d4-8f5f-987317148d73}, !- Construction Name
  ExteriorRoof,                           !- Intended Surface Type
  Metal;                                  !- Standards Construction Type

OS:Material,
  {12730646-fa45-4b7f-92f8-a1384db26562}, !- Handle
  Metal Roofing,                          !- Name
  MediumSmooth,                           !- Roughness
  0.0015,                                 !- Thickness {m}
  45.006,                                 !- Conductivity {W/m-K}
  7680,                                   !- Density {kg/m3}
  418.4,                                  !- Specific Heat {J/kg-K}
  0.9,                                    !- Thermal Absorptance
  0.3,                                    !- Solar Absorptance
  0.3;                                    !- Visible Absorptance

OS:Material,
  {c6ca876f-86aa-4433-9eac-bd89d0ac6d89}, !- Handle
  Roof Insulation [19],                   !- Name
  MediumRough,                            !- Roughness
  0.1868,                                 !- Thickness {m}
  0.049,                                  !- Conductivity {W/m-K}
  265,                                    !- Density {kg/m3}
  836.800000000001,                       !- Specific Heat {J/kg-K}
  0.9,                                    !- Thermal Absorptance
  0.7,                                    !- Solar Absorptance
  0.7;                                    !- Visible Absorptance

OS:Construction,
  {91f9ee9b-7d7e-4ded-80a5-440bcff1151e}, !- Handle
  ASHRAE 189.1-2009 ExtRoof Metal ClimateZone 2-5, !- Name
  ,                                       !- Surface Rendering Name
  {12730646-fa45-4b7f-92f8-a1384db26562}, !- Layer 1
  {606f03cd-9c63-48ca-a093-ae72754df7f9}; !- Layer 2

OS:StandardsInformation:Construction,
  {996468de-006a-4eb2-b255-688325bf629b}, !- Handle
  {91f9ee9b-7d7e-4ded-80a5-440bcff1151e}, !- Construction Name
  ExteriorRoof,                           !- Intended Surface Type
  Metal;                                  !- Standards Construction Type

OS:Material,
  {606f03cd-9c63-48ca-a093-ae72754df7f9}, !- Handle
  Roof Insulation [22],                   !- Name
  MediumRough,                            !- Roughness
  0.2358,                                 !- Thickness {m}
  0.049,                                  !- Conductivity {W/m-K}
  265,                                    !- Density {kg/m3}
  836.800000000001,                       !- Specific Heat {J/kg-K}
  0.9,                                    !- Thermal Absorptance
  0.7,                                    !- Solar Absorptance
  0.7;                                    !- Visible Absorptance

OS:Construction,
  {4469cdcd-4984-42eb-8f4d-aa06c5b4f175}, !- Handle
  ASHRAE 189.1-2009 ExtRoof Metal ClimateZone 6, !- Name
  ,                                       !- Surface Rendering Name
  {12730646-fa45-4b7f-92f8-a1384db26562}, !- Layer 1
  {84a43752-ec22-4363-9ad3-630ca69b88fa}; !- Layer 2

OS:StandardsInformation:Construction,
  {1abad543-ee8b-4605-8aad-f692c6f61c0a}, !- Handle
  {4469cdcd-4984-42eb-8f4d-aa06c5b4f175}, !- Construction Name
  ExteriorRoof,                           !- Intended Surface Type
  Metal;                                  !- Standards Construction Type

OS:Material,
  {84a43752-ec22-4363-9ad3-630ca69b88fa}, !- Handle
  Roof Insulation [25],                   !- Name
  MediumRough,                            !- Roughness
  0.263,                                  !- Thickness {m}
  0.049,                                  !- Conductivity {W/m-K}
  265,                                    !- Density {kg/m3}
  836.800000000001,                       !- Specific Heat {J/kg-K}
  0.9,                                    !- Thermal Absorptance
  0.7,                                    !- Solar Absorptance
  0.7;                                    !- Visible Absorptance

OS:Construction,
  {0ed6d4c2-0115-4d86-8804-871aa60b524f}, !- Handle
  ASHRAE 189.1-2009 ExtRoof Metal ClimateZone 7-8, !- Name
  ,                                       !- Surface Rendering Name
  {12730646-fa45-4b7f-92f8-a1384db26562}, !- Layer 1
  {1e551815-fc24-4f65-84e8-2e55cf72c160}; !- Layer 2

OS:StandardsInformation:Construction,
  {5dedfce8-7c5c-4fdd-9501-6e933afe8a1f}, !- Handle
  {0ed6d4c2-0115-4d86-8804-871aa60b524f}, !- Construction Name
  ExteriorRoof,                           !- Intended Surface Type
  Metal;                                  !- Standards Construction Type

OS:Material,
  {1e551815-fc24-4f65-84e8-2e55cf72c160}, !- Handle
  Roof Insulation [27],                   !- Name
  MediumRough,                            !- Roughness
  0.297000000000001,                      !- Thickness {m}
  0.049,                                  !- Conductivity {W/m-K}
  265,                                    !- Density {kg/m3}
  836.800000000001,                       !- Specific Heat {J/kg-K}
  0.9,                                    !- Thermal Absorptance
  0.7,                                    !- Solar Absorptance
  0.7;                                    !- Visible Absorptance

OS:Construction,
  {af1d4d88-d382-47d7-9038-ad61a3b4f152}, !- Handle
  ASHRAE 189.1-2009 ExtWall Mass ClimateZone 1, !- Name
  ,                                       !- Surface Rendering Name
  {7fdc4e24-4bcc-4aa0-bae5-3f223161feff}, !- Layer 1
  {5684d7f5-fa41-44d2-8a54-da43c1482dfc}, !- Layer 2
  {df6693ef-42c6-43de-bd83-fa206498799f}, !- Layer 3
  {010bf6f9-2cae-4f46-aac3-e70a511fdea2}; !- Layer 4

OS:StandardsInformation:Construction,
  {6f840387-674c-4665-9656-a713f24b41f0}, !- Handle
  {af1d4d88-d382-47d7-9038-ad61a3b4f152}, !- Construction Name
  ExteriorWall,                           !- Intended Surface Type
  Mass;                                   !- Standards Construction Type

OS:Material,
  {7fdc4e24-4bcc-4aa0-bae5-3f223161feff}, !- Handle
  1IN Stucco,                             !- Name
  Smooth,                                 !- Roughness
  0.0253,                                 !- Thickness {m}
  0.691799999999999,                      !- Conductivity {W/m-K}
  1858,                                   !- Density {kg/m3}
  836.999999999999,                       !- Specific Heat {J/kg-K}
  0.9,                                    !- Thermal Absorptance
  0.92,                                   !- Solar Absorptance
  0.92;                                   !- Visible Absorptance

OS:Material,
  {5684d7f5-fa41-44d2-8a54-da43c1482dfc}, !- Handle
  8IN Concrete HW,                        !- Name
  MediumRough,                            !- Roughness
  0.2033,                                 !- Thickness {m}
  1.72959999999999,                       !- Conductivity {W/m-K}
  2242.99999999999,                       !- Density {kg/m3}
  836.999999999999,                       !- Specific Heat {J/kg-K}
  0.9,                                    !- Thermal Absorptance
  0.65,                                   !- Solar Absorptance
  0.65;                                   !- Visible Absorptance

OS:Material,
  {df6693ef-42c6-43de-bd83-fa206498799f}, !- Handle
  Wall Insulation [31],                   !- Name
  MediumRough,                            !- Roughness
  0.0337000000000001,                     !- Thickness {m}
  0.0432,                                 !- Conductivity {W/m-K}
  91,                                     !- Density {kg/m3}
  836.999999999999,                       !- Specific Heat {J/kg-K}
  0.9,                                    !- Thermal Absorptance
  0.5,                                    !- Solar Absorptance
  0.5;                                    !- Visible Absorptance

OS:Construction,
  {859ba932-5227-499c-a59b-cf3c11781e59}, !- Handle
  ASHRAE 189.1-2009 ExtWall Mass ClimateZone 2, !- Name
  ,                                       !- Surface Rendering Name
  {7fdc4e24-4bcc-4aa0-bae5-3f223161feff}, !- Layer 1
  {5684d7f5-fa41-44d2-8a54-da43c1482dfc}, !- Layer 2
  {748c1cee-8322-4126-a870-46b3f6da1a96}, !- Layer 3
  {010bf6f9-2cae-4f46-aac3-e70a511fdea2}; !- Layer 4

OS:StandardsInformation:Construction,
  {63bdf417-043a-4ec0-8df7-cf585c723c65}, !- Handle
  {859ba932-5227-499c-a59b-cf3c11781e59}, !- Construction Name
  ExteriorWall,                           !- Intended Surface Type
  Mass;                                   !- Standards Construction Type

OS:Material,
  {748c1cee-8322-4126-a870-46b3f6da1a96}, !- Handle
  Wall Insulation [35],                   !- Name
  MediumRough,                            !- Roughness
  0.0452,                                 !- Thickness {m}
  0.0432,                                 !- Conductivity {W/m-K}
  91,                                     !- Density {kg/m3}
  836.999999999999,                       !- Specific Heat {J/kg-K}
  0.9,                                    !- Thermal Absorptance
  0.5,                                    !- Solar Absorptance
  0.5;                                    !- Visible Absorptance

OS:Construction,
  {06b2e009-49fd-498e-9b17-31b3e64d0bc9}, !- Handle
  ASHRAE 189.1-2009 ExtWall Mass ClimateZone 3, !- Name
  ,                                       !- Surface Rendering Name
  {7fdc4e24-4bcc-4aa0-bae5-3f223161feff}, !- Layer 1
  {5684d7f5-fa41-44d2-8a54-da43c1482dfc}, !- Layer 2
  {fa21aae0-ea55-40d6-b6ac-29981aeb78b6}, !- Layer 3
  {010bf6f9-2cae-4f46-aac3-e70a511fdea2}; !- Layer 4

OS:StandardsInformation:Construction,
  {f25c5307-9746-40c3-9f15-f19006ccc421}, !- Handle
  {06b2e009-49fd-498e-9b17-31b3e64d0bc9}, !- Construction Name
  ExteriorWall,                           !- Intended Surface Type
  Mass;                                   !- Standards Construction Type

OS:Material,
  {fa21aae0-ea55-40d6-b6ac-29981aeb78b6}, !- Handle
  Wall Insulation [36],                   !- Name
  MediumRough,                            !- Roughness
  0.0565999999999999,                     !- Thickness {m}
  0.0432,                                 !- Conductivity {W/m-K}
  91,                                     !- Density {kg/m3}
  836.999999999999,                       !- Specific Heat {J/kg-K}
  0.9,                                    !- Thermal Absorptance
  0.5,                                    !- Solar Absorptance
  0.5;                                    !- Visible Absorptance

OS:Construction,
  {e821287a-0596-44dc-8dcf-f0c5a9ecbf5d}, !- Handle
  ASHRAE 189.1-2009 ExtWall Mass ClimateZone 4, !- Name
  ,                                       !- Surface Rendering Name
  {7fdc4e24-4bcc-4aa0-bae5-3f223161feff}, !- Layer 1
  {5684d7f5-fa41-44d2-8a54-da43c1482dfc}, !- Layer 2
  {0f0d5a8b-7e00-46ed-b549-84aed46aca1b}, !- Layer 3
  {010bf6f9-2cae-4f46-aac3-e70a511fdea2}; !- Layer 4

OS:StandardsInformation:Construction,
  {7b953447-705f-458a-9c75-88d17b5d2811}, !- Handle
  {e821287a-0596-44dc-8dcf-f0c5a9ecbf5d}, !- Construction Name
  ExteriorWall,                           !- Intended Surface Type
  Mass;                                   !- Standards Construction Type

OS:Material,
  {0f0d5a8b-7e00-46ed-b549-84aed46aca1b}, !- Handle
  Wall Insulation [37],                   !- Name
  MediumRough,                            !- Roughness
  0.0680999999999999,                     !- Thickness {m}
  0.0432,                                 !- Conductivity {W/m-K}
  91,                                     !- Density {kg/m3}
  836.999999999999,                       !- Specific Heat {J/kg-K}
  0.9,                                    !- Thermal Absorptance
  0.5,                                    !- Solar Absorptance
  0.5;                                    !- Visible Absorptance

OS:Construction,
  {e84295f8-92e1-4547-9cc9-1fca17086e15}, !- Handle
  ASHRAE 189.1-2009 ExtWall Mass ClimateZone 5, !- Name
  ,                                       !- Surface Rendering Name
  {7fdc4e24-4bcc-4aa0-bae5-3f223161feff}, !- Layer 1
  {5684d7f5-fa41-44d2-8a54-da43c1482dfc}, !- Layer 2
  {e2419888-375e-4444-80e7-a4da52e478cf}, !- Layer 3
  {010bf6f9-2cae-4f46-aac3-e70a511fdea2}; !- Layer 4

OS:StandardsInformation:Construction,
  {18b6700a-89d4-4e7f-a162-16431b105b10}, !- Handle
  {e84295f8-92e1-4547-9cc9-1fca17086e15}, !- Construction Name
  ExteriorWall,                           !- Intended Surface Type
  Mass;                                   !- Standards Construction Type

OS:Material,
  {e2419888-375e-4444-80e7-a4da52e478cf}, !- Handle
  Wall Insulation [40],                   !- Name
  MediumRough,                            !- Roughness
  0.0793999999999999,                     !- Thickness {m}
  0.0432,                                 !- Conductivity {W/m-K}
  91,                                     !- Density {kg/m3}
  836.999999999999,                       !- Specific Heat {J/kg-K}
  0.9,                                    !- Thermal Absorptance
  0.5,                                    !- Solar Absorptance
  0.5;                                    !- Visible Absorptance

OS:Construction,
  {0341690c-00a2-4ce5-aef5-0e616a205972}, !- Handle
  ASHRAE 189.1-2009 ExtWall Mass ClimateZone 6, !- Name
  ,                                       !- Surface Rendering Name
  {7fdc4e24-4bcc-4aa0-bae5-3f223161feff}, !- Layer 1
  {5684d7f5-fa41-44d2-8a54-da43c1482dfc}, !- Layer 2
  {d8ed43ac-add2-471b-b6a2-250bddcc5b1b}, !- Layer 3
  {010bf6f9-2cae-4f46-aac3-e70a511fdea2}; !- Layer 4

OS:StandardsInformation:Construction,
  {5a9acc7c-c3e7-4901-b43a-95782f6b9b06}, !- Handle
  {0341690c-00a2-4ce5-aef5-0e616a205972}, !- Construction Name
  ExteriorWall,                           !- Intended Surface Type
  Mass;                                   !- Standards Construction Type

OS:Material,
  {d8ed43ac-add2-471b-b6a2-250bddcc5b1b}, !- Handle
  Wall Insulation [42],                   !- Name
  MediumRough,                            !- Roughness
  0.0913999999999999,                     !- Thickness {m}
  0.0432,                                 !- Conductivity {W/m-K}
  91,                                     !- Density {kg/m3}
  836.999999999999,                       !- Specific Heat {J/kg-K}
  0.9,                                    !- Thermal Absorptance
  0.5,                                    !- Solar Absorptance
  0.5;                                    !- Visible Absorptance

OS:Construction,
  {c40119eb-f4d9-47ca-8b93-2b8912759991}, !- Handle
  ASHRAE 189.1-2009 ExtWall Mass ClimateZone 7-8, !- Name
  ,                                       !- Surface Rendering Name
  {7fdc4e24-4bcc-4aa0-bae5-3f223161feff}, !- Layer 1
  {5684d7f5-fa41-44d2-8a54-da43c1482dfc}, !- Layer 2
  {7b449369-75e3-49cf-b067-dfcf62fec075}, !- Layer 3
  {010bf6f9-2cae-4f46-aac3-e70a511fdea2}; !- Layer 4

OS:StandardsInformation:Construction,
  {29be0311-d5a5-4a18-b8b3-1dda23eb9fb8}, !- Handle
  {c40119eb-f4d9-47ca-8b93-2b8912759991}, !- Construction Name
  ExteriorWall,                           !- Intended Surface Type
  Mass;                                   !- Standards Construction Type

OS:Material,
  {7b449369-75e3-49cf-b067-dfcf62fec075}, !- Handle
  Wall Insulation [44],                   !- Name
  MediumRough,                            !- Roughness
  0.1104,                                 !- Thickness {m}
  0.0432,                                 !- Conductivity {W/m-K}
  91,                                     !- Density {kg/m3}
  836.999999999999,                       !- Specific Heat {J/kg-K}
  0.9,                                    !- Thermal Absorptance
  0.5,                                    !- Solar Absorptance
  0.5;                                    !- Visible Absorptance

OS:Construction,
  {5ba45265-232e-42ae-94d6-fbba6cfb5b45}, !- Handle
  ASHRAE 189.1-2009 ExtWall Mass ClimateZone alt-res 1, !- Name
  ,                                       !- Surface Rendering Name
  {7fdc4e24-4bcc-4aa0-bae5-3f223161feff}, !- Layer 1
  {5684d7f5-fa41-44d2-8a54-da43c1482dfc}, !- Layer 2
  {748c1cee-8322-4126-a870-46b3f6da1a96}, !- Layer 3
  {010bf6f9-2cae-4f46-aac3-e70a511fdea2}; !- Layer 4

OS:StandardsInformation:Construction,
  {3632fe53-06f3-489b-9f5f-9a667ece31d2}, !- Handle
  {5ba45265-232e-42ae-94d6-fbba6cfb5b45}, !- Construction Name
  ExteriorWall,                           !- Intended Surface Type
  Mass;                                   !- Standards Construction Type

OS:Construction,
  {587ad6e0-387d-4ad2-9852-2b0bbbac8f8c}, !- Handle
  ASHRAE 189.1-2009 ExtWall Mass ClimateZone alt-res 2, !- Name
  ,                                       !- Surface Rendering Name
  {7fdc4e24-4bcc-4aa0-bae5-3f223161feff}, !- Layer 1
  {5684d7f5-fa41-44d2-8a54-da43c1482dfc}, !- Layer 2
  {fa21aae0-ea55-40d6-b6ac-29981aeb78b6}, !- Layer 3
  {010bf6f9-2cae-4f46-aac3-e70a511fdea2}; !- Layer 4

OS:StandardsInformation:Construction,
  {ef61280c-8709-468c-90cb-5a603312ea7c}, !- Handle
  {587ad6e0-387d-4ad2-9852-2b0bbbac8f8c}, !- Construction Name
  ExteriorWall,                           !- Intended Surface Type
  Mass;                                   !- Standards Construction Type

OS:Construction,
  {a32e6fa9-3308-4206-bb0c-cf615c890162}, !- Handle
  ASHRAE 189.1-2009 ExtWall Mass ClimateZone alt-res 3, !- Name
  ,                                       !- Surface Rendering Name
  {7fdc4e24-4bcc-4aa0-bae5-3f223161feff}, !- Layer 1
  {5684d7f5-fa41-44d2-8a54-da43c1482dfc}, !- Layer 2
  {0f0d5a8b-7e00-46ed-b549-84aed46aca1b}, !- Layer 3
  {010bf6f9-2cae-4f46-aac3-e70a511fdea2}; !- Layer 4

OS:StandardsInformation:Construction,
  {3ab9e957-6100-4321-8225-971fa859b79d}, !- Handle
  {a32e6fa9-3308-4206-bb0c-cf615c890162}, !- Construction Name
  ExteriorWall,                           !- Intended Surface Type
  Mass;                                   !- Standards Construction Type

OS:Construction,
  {196833f5-7253-4b56-94fe-0861aacb36aa}, !- Handle
  ASHRAE 189.1-2009 ExtWall Mass ClimateZone alt-res 4, !- Name
  ,                                       !- Surface Rendering Name
  {7fdc4e24-4bcc-4aa0-bae5-3f223161feff}, !- Layer 1
  {5684d7f5-fa41-44d2-8a54-da43c1482dfc}, !- Layer 2
  {e2419888-375e-4444-80e7-a4da52e478cf}, !- Layer 3
  {010bf6f9-2cae-4f46-aac3-e70a511fdea2}; !- Layer 4

OS:StandardsInformation:Construction,
  {98f5594b-10b9-45d9-81dd-64f5eaf4f79d}, !- Handle
  {196833f5-7253-4b56-94fe-0861aacb36aa}, !- Construction Name
  ExteriorWall,                           !- Intended Surface Type
  Mass;                                   !- Standards Construction Type

OS:Construction,
  {389c5ee8-c2d8-42ae-9740-ff84d886b610}, !- Handle
  ASHRAE 189.1-2009 ExtWall Mass ClimateZone alt-res 5, !- Name
  ,                                       !- Surface Rendering Name
  {7fdc4e24-4bcc-4aa0-bae5-3f223161feff}, !- Layer 1
  {5684d7f5-fa41-44d2-8a54-da43c1482dfc}, !- Layer 2
  {d8ed43ac-add2-471b-b6a2-250bddcc5b1b}, !- Layer 3
  {010bf6f9-2cae-4f46-aac3-e70a511fdea2}; !- Layer 4

OS:StandardsInformation:Construction,
  {8708ed8f-0397-4d6c-a121-5e8cf352f3f4}, !- Handle
  {389c5ee8-c2d8-42ae-9740-ff84d886b610}, !- Construction Name
  ExteriorWall,                           !- Intended Surface Type
  Mass;                                   !- Standards Construction Type

OS:Construction,
  {13a3ec9f-88d6-45d5-8b4e-e5fc7d12b123}, !- Handle
  ASHRAE 189.1-2009 ExtWall Mass ClimateZone alt-res 6, !- Name
  ,                                       !- Surface Rendering Name
  {7fdc4e24-4bcc-4aa0-bae5-3f223161feff}, !- Layer 1
  {5684d7f5-fa41-44d2-8a54-da43c1482dfc}, !- Layer 2
  {7b449369-75e3-49cf-b067-dfcf62fec075}, !- Layer 3
  {010bf6f9-2cae-4f46-aac3-e70a511fdea2}; !- Layer 4

OS:StandardsInformation:Construction,
  {aa1144c5-0109-4596-8d63-5eeb8271d835}, !- Handle
  {13a3ec9f-88d6-45d5-8b4e-e5fc7d12b123}, !- Construction Name
  ExteriorWall,                           !- Intended Surface Type
  Mass;                                   !- Standards Construction Type

OS:Construction,
  {f9401672-7de4-4db9-b909-131acea7d8a5}, !- Handle
  ASHRAE 189.1-2009 ExtWall Mass ClimateZone alt-res 7, !- Name
  ,                                       !- Surface Rendering Name
  {7fdc4e24-4bcc-4aa0-bae5-3f223161feff}, !- Layer 1
  {5684d7f5-fa41-44d2-8a54-da43c1482dfc}, !- Layer 2
  {7b449369-75e3-49cf-b067-dfcf62fec075}, !- Layer 3
  {010bf6f9-2cae-4f46-aac3-e70a511fdea2}; !- Layer 4

OS:StandardsInformation:Construction,
  {6220f306-23c9-47d0-99e3-0eccc13719a1}, !- Handle
  {f9401672-7de4-4db9-b909-131acea7d8a5}, !- Construction Name
  ExteriorWall,                           !- Intended Surface Type
  Mass;                                   !- Standards Construction Type

OS:Construction,
  {356ef8d2-6009-4348-84de-8516675b0dc4}, !- Handle
  ASHRAE 189.1-2009 ExtWall Mass ClimateZone alt-res 8, !- Name