
OS:Version,
  {be32b101-45d4-4ae7-80ac-9eadd33ec08b}, !- Handle
  1.3.3;                                  !- Version Identifier

OS:Construction,
  {aec58842-6996-4e09-a0c1-8dc60c252b81}, !- Handle
  ASHRAE 189.1-2009 AtticFloor ClimateZone 1-8, !- Name
  ,                                       !- Surface Rendering Name
  {e29666cc-db9f-4d0c-8185-f3c49a1be38a}, !- Layer 1
  {2bcf9789-a41a-4458-b257-b055b347a177}, !- Layer 2
  {e29666cc-db9f-4d0c-8185-f3c49a1be38a}; !- Layer 3

OS:StandardsInformation:Construction,
  {ebf53531-d8ca-439c-afa0-c04901cb5d16}, !- Handle
  {aec58842-6996-4e09-a0c1-8dc60c252b81}, !- Construction Name
  AtticFloor,                             !- Intended Surface Type
  WoodFramed;                             !- Standards Construction Type

OS:Material,
  {e29666cc-db9f-4d0c-8185-f3c49a1be38a}, !- Handle
  1/2IN Gypsum,                           !- Name
  Smooth,                                 !- Roughness
  0.0127,                                 !- Thickness {m}
  0.16,                                   !- Conductivity {W/m-K}
  784.9,                                  !- Density {kg/m3}
  830.000000000001,                       !- Specific Heat {J/kg-K}
  0.9,                                    !- Thermal Absorptance
  0.92,                                   !- Solar Absorptance
  0.92;                                   !- Visible Absorptance

OS:Material,
  {2bcf9789-a41a-4458-b257-b055b347a177}, !- Handle
  AtticFloor Insulation,                  !- Name
  MediumRough,                            !- Roughness
  0.2379,                                 !- Thickness {m}
  0.049,                                  !- Conductivity {W/m-K}
  265,                                    !- Density {kg/m3}
  836.800000000001,                       !- Specific Heat {J/kg-K}
  0.9,                                    !- Thermal Absorptance
  0.7,                                    !- Solar Absorptance
  0.7;                                    !- Visible Absorptance

OS:Construction,
  {43fec309-5d6a-493b-a6ad-95020a2308a0}, !- Handle
  ASHRAE 189.1-2009 ExtRoof IEAD ClimateZone 1, !- Name
  ,                                       !- Surface Rendering Name
  {b6e293f1-14f2-481d-811e-d58ae1064f70}, !- Layer 1
  {312da7d8-df49-4e42-8d38-f2400dbf7a8b}, !- Layer 2
  {b1fbffd7-4822-4800-8ff8-10fd6dfad37a}; !- Layer 3

OS:StandardsInformation:Construction,
  {b4a2b75c-c1d9-40d4-9e78-e06b24894637}, !- Handle
  {43fec309-5d6a-493b-a6ad-95020a2308a0}, !- Construction Name
  ExteriorRoof,                           !- Intended Surface Type
  IEAD;                                   !- Standards Construction Type

OS:Material,
  {b6e293f1-14f2-481d-811e-d58ae1064f70}, !- Handle
  Roof Membrane,                          !- Name
  VeryRough,                              !- Roughness
  0.0095,                                 !- Thickness {m}
  0.16,                                   !- Conductivity {W/m-K}
  1121.29,                                !- Density {kg/m3}
  1460,                                   !- Specific Heat {J/kg-K}
  0.9,                                    !- Thermal Absorptance
  0.7,                                    !- Solar Absorptance
  0.7;                                    !- Visible Absorptance

OS:Material,
  {312da7d8-df49-4e42-8d38-f2400dbf7a8b}, !- Handle
  Roof Insulation [18],                   !- Name
  MediumRough,                            !- Roughness
  0.1693,                                 !- Thickness {m}
  0.049,                                  !- Conductivity {W/m-K}
  265,                                    !- Density {kg/m3}
  836.800000000001,                       !- Specific Heat {J/kg-K}
  0.9,                                    !- Thermal Absorptance
  0.7,                                    !- Solar Absorptance
  0.7;                                    !- Visible Absorptance

OS:Material,
  {b1fbffd7-4822-4800-8ff8-10fd6dfad37a}, !- Handle
  Metal Decking,                          !- Name
  MediumSmooth,                           !- Roughness
  0.0015,                                 !- Thickness {m}
  45.006,                                 !- Conductivity {W/m-K}
  7680,                                   !- Density {kg/m3}
  418.4,                                  !- Specific Heat {J/kg-K}
  0.9,                                    !- Thermal Absorptance
  0.7,                                    !- Solar Absorptance
  0.3;                                    !- Visible Absorptance

OS:Construction,
  {19d898e6-f8c4-4b46-aafc-f7ed38fb2e93}, !- Handle
  ASHRAE 189.1-2009 ExtRoof IEAD ClimateZone 2-5, !- Name
  ,                                       !- Surface Rendering Name
  {b6e293f1-14f2-481d-811e-d58ae1064f70}, !- Layer 1
  {cde32d67-669d-4786-b8e3-a4f35de6d7c0}, !- Layer 2
  {b1fbffd7-4822-4800-8ff8-10fd6dfad37a}; !- Layer 3

OS:StandardsInformation:Construction,
  {79bf8a91-dda3-4b18-93f5-00c6675484c0}, !- Handle
  {19d898e6-f8c4-4b46-aafc-f7ed38fb2e93}, !- Construction Name
  ExteriorRoof,                           !- Intended Surface Type
  IEAD;                                   !- Standards Construction Type

OS:Material,
  {cde32d67-669d-4786-b8e3-a4f35de6d7c0}, !- Handle
  Roof Insulation [21],                   !- Name
  MediumRough,                            !- Roughness
  0.2105,                                 !- Thickness {m}
  0.049,                                  !- Conductivity {W/m-K}
  265,                                    !- Density {kg/m3}
  836.800000000001,                       !- Specific Heat {J/kg-K}
  0.9,                                    !- Thermal Absorptance
  0.7,                                    !- Solar Absorptance
  0.7;                                    !- Visible Absorptance

OS:Construction,
  {9591b0a2-98af-47ab-9b07-92e23d4ffc7b}, !- Handle
  ASHRAE 189.1-2009 ExtRoof IEAD ClimateZone 6, !- Name
  ,                                       !- Surface Rendering Name
  {b6e293f1-14f2-481d-811e-d58ae1064f70}, !- Layer 1
  {469aa938-88af-433a-9cf7-65d8076fa5b1}, !- Layer 2
  {b1fbffd7-4822-4800-8ff8-10fd6dfad37a}; !- Layer 3

OS:StandardsInformation:Construction,
  {4f475ed3-6597-4946-af2a-18c2d36b35d8}, !- Handle
  {9591b0a2-98af-47ab-9b07-92e23d4ffc7b}, !- Construction Name
  ExteriorRoof,                           !- Intended Surface Type
  IEAD;                                   !- Standards Construction Type

OS:Material,
  {469aa938-88af-433a-9cf7-65d8076fa5b1}, !- Handle
  Roof Insulation [24],                   !- Name
  MediumRough,                            !- Roughness
  0.260100000000001,                      !- Thickness {m}
  0.049,                                  !- Conductivity {W/m-K}
  265,                                    !- Density {kg/m3}
  836.800000000001,                       !- Specific Heat {J/kg-K}
  0.9,                                    !- Thermal Absorptance
  0.7,                                    !- Solar Absorptance
  0.7;                                    !- Visible Absorptance

OS:Construction,
  {3d11ee24-8a8a-4877-8443-7b9cd4814a99}, !- Handle
  ASHRAE 189.1-2009 ExtRoof IEAD ClimateZone 7-8, !- Name
  ,                                       !- Surface Rendering Name
  {b6e293f1-14f2-481d-811e-d58ae1064f70}, !- Layer 1
  {ae5f47a9-ff01-4157-a357-b013e5e4a4a2}, !- Layer 2
  {b1fbffd7-4822-4800-8ff8-10fd6dfad37a}; !- Layer 3

OS:StandardsInformation:Construction,
  {9a453ccb-8f2d-40f9-8d79-9d7b81509e88}, !- Handle
  {3d11ee24-8a8a-4877-8443-7b9cd4814a99}, !- Construction Name
  ExteriorRoof,                           !- Intended Surface Type
  IEAD;                                   !- Standards Construction Type

OS:Material,
  {ae5f47a9-ff01-4157-a357-b013e5e4a4a2}, !- Handle
  Roof Insulation [26],                   !- Name
  MediumRough,                            !- Roughness
  0.2941,                                 !- Thickness {m}
  0.049,                                  !- Conductivity {W/m-K}
  265,                                    !- Density {kg/m3}
  836.800000000001,                       !- Specific Heat {J/kg-K}
  0.9,                                    !- Thermal Absorptance
  0.7,                                    !- Solar Absorptance
  0.7;                                    !- Visible Absorptance

OS:Construction,
  {867ab963-58d3-4199-98b5-e46e4755d5fe}, !- Handle
  ASHRAE 189.1-2009 ExtRoof Metal ClimateZone 1, !- Name
  ,                                       !- Surface Rendering Name
  {80830452-bf30-48f2-80a3-df2853877e0d}, !- Layer 1
  {fe360fdb-4775-4c5d-b8d2-f4fec956d85e}; !- Layer 2

OS:StandardsInformation:Construction,
  {50c528c7-0cc2-45c3-923e-540e3f950466}, !- Handle
  {867ab963-58d3-4199-98b5-e46e4755d5fe}, !- Construction Name
  ExteriorRoof,                           !- Intended Surface Type
  Metal;                                  !- Standards Construction Type

OS:Material,
  {80830452-bf30-48f2-80a3-df2853877e0d}, !- Handle
  Metal Roofing,                          !- Name
  MediumSmooth,                           !- Roughness
  0.0015,                                 !- Thickness {m}
  45.006,                                 !- Conductivity {W/m-K}
  7680,                                   !- Density {kg/m3}
  418.4,                                  !- Specific Heat {J/kg-K}
  0.9,                                    !- Thermal Absorptance
  0.3,                                    !- Solar Absorptance
  0.3;                                    !- Visible Absorptance

OS:Material,
  {fe360fdb-4775-4c5d-b8d2-f4fec956d85e}, !- Handle
  Roof Insulation [19],                   !- Name
  MediumRough,                            !- Roughness
  0.1868,                                 !- Thickness {m}
  0.049,                                  !- Conductivity {W/m-K}
  265,                                    !- Density {kg/m3}
  836.800000000001,                       !- Specific Heat {J/kg-K}
  0.9,                                    !- Thermal Absorptance
  0.7,                                    !- Solar Absorptance
  0.7;                                    !- Visible Absorptance

OS:Construction,
  {11808581-edd9-4ff0-b261-9f051cad7e89}, !- Handle
  ASHRAE 189.1-2009 ExtRoof Metal ClimateZone 2-5, !- Name
  ,                                       !- Surface Rendering Name
  {80830452-bf30-48f2-80a3-df2853877e0d}, !- Layer 1
  {43adc0c2-ec3e-4e18-af23-479acf025e57}; !- Layer 2

OS:StandardsInformation:Construction,
  {88ad9367-f90b-46a6-a7a2-383b7edddb80}, !- Handle
  {11808581-edd9-4ff0-b261-9f051cad7e89}, !- Construction Name
  ExteriorRoof,                           !- Intended Surface Type
  Metal;                                  !- Standards Construction Type

OS:Material,
  {43adc0c2-ec3e-4e18-af23-479acf025e57}, !- Handle
  Roof Insulation [22],                   !- Name
  MediumRough,                            !- Roughness
  0.2358,                                 !- Thickness {m}
  0.049,                                  !- Conductivity {W/m-K}
  265,                                    !- Density {kg/m3}
  836.800000000001,                       !- Specific Heat {J/kg-K}
  0.9,                                    !- Thermal Absorptance
  0.7,                                    !- Solar Absorptance
  0.7;                                    !- Visible Absorptance

OS:Construction,
  {37c5c8dc-0f1a-4e6e-8ade-8727997860f5}, !- Handle
  ASHRAE 189.1-2009 ExtRoof Metal ClimateZone 6, !- Name
  ,                                       !- Surface Rendering Name
  {80830452-bf30-48f2-80a3-df2853877e0d}, !- Layer 1
  {3ce3dd3e-7871-4b6d-8647-cd9d65d2190a}; !- Layer 2

OS:StandardsInformation:Construction,
  {47e0e51f-e298-49eb-ac1e-4b7b36513a71}, !- Handle
  {37c5c8dc-0f1a-4e6e-8ade-8727997860f5}, !- Construction Name
  ExteriorRoof,                           !- Intended Surface Type
  Metal;                                  !- Standards Construction Type

OS:Material,
  {3ce3dd3e-7871-4b6d-8647-cd9d65d2190a}, !- Handle
  Roof Insulation [25],                   !- Name
  MediumRough,                            !- Roughness
  0.263,                                  !- Thickness {m}
  0.049,                                  !- Conductivity {W/m-K}
  265,                                    !- Density {kg/m3}
  836.800000000001,                       !- Specific Heat {J/kg-K}
  0.9,                                    !- Thermal Absorptance
  0.7,                                    !- Solar Absorptance
  0.7;                                    !- Visible Absorptance

OS:Construction,
  {d5214de4-8f94-4331-865a-52eedd541105}, !- Handle
  ASHRAE 189.1-2009 ExtRoof Metal ClimateZone 7-8, !- Name
  ,                                       !- Surface Rendering Name
  {80830452-bf30-48f2-80a3-df2853877e0d}, !- Layer 1
  {5ed0208b-9dc7-466a-82a5-6f5d15733db4}; !- Layer 2

OS:StandardsInformation:Construction,
  {ea35adf1-29a4-4742-ad6b-c48c0cb5c3cb}, !- Handle
  {d5214de4-8f94-4331-865a-52eedd541105}, !- Construction Name
  ExteriorRoof,                           !- Intended Surface Type
  Metal;                                  !- Standards Construction Type

OS:Material,
  {5ed0208b-9dc7-466a-82a5-6f5d15733db4}, !- Handle
  Roof Insulation [27],                   !- Name
  MediumRough,                            !- Roughness
  0.297000000000001,                      !- Thickness {m}
  0.049,                                  !- Conductivity {W/m-K}
  265,                                    !- Density {kg/m3}
  836.800000000001,                       !- Specific Heat {J/kg-K}
  0.9,                                    !- Thermal Absorptance
  0.7,                                    !- Solar Absorptance
  0.7;                                    !- Visible Absorptance

OS:Construction,
  {6d07c420-a8b4-4a83-bb0e-a82c9bb2b930}, !- Handle
  ASHRAE 189.1-2009 ExtWall Mass ClimateZone 1, !- Name
  ,                                       !- Surface Rendering Name
  {01ebc5b3-909a-486a-bb84-043b2977bfcf}, !- Layer 1
  {99f7210e-df41-49a8-8d29-435d8af8a356}, !- Layer 2
  {990977ff-6174-486c-816b-4f2833742034}, !- Layer 3
  {e29666cc-db9f-4d0c-8185-f3c49a1be38a}; !- Layer 4

OS:StandardsInformation:Construction,
  {c84cf524-b5ac-4ad2-8adb-1528c1ba9f59}, !- Handle
  {6d07c420-a8b4-4a83-bb0e-a82c9bb2b930}, !- Construction Name
  ExteriorWall,                           !- Intended Surface Type
  Mass;                                   !- Standards Construction Type

OS:Material,
  {01ebc5b3-909a-486a-bb84-043b2977bfcf}, !- Handle
  1IN Stucco,                             !- Name
  Smooth,                                 !- Roughness
  0.0253,                                 !- Thickness {m}
  0.691799999999999,                      !- Conductivity {W/m-K}
  1858,                                   !- Density {kg/m3}
  836.999999999999,                       !- Specific Heat {J/kg-K}
  0.9,                                    !- Thermal Absorptance
  0.92,                                   !- Solar Absorptance
  0.92;                                   !- Visible Absorptance

OS:Material,
  {99f7210e-df41-49a8-8d29-435d8af8a356}, !- Handle
  8IN Concrete HW,                        !- Name
  MediumRough,                            !- Roughness
  0.2033,                                 !- Thickness {m}
  1.72959999999999,                       !- Conductivity {W/m-K}
  2242.99999999999,                       !- Density {kg/m3}
  836.999999999999,                       !- Specific Heat {J/kg-K}
  0.9,                                    !- Thermal Absorptance
  0.65,                                   !- Solar Absorptance
  0.65;                                   !- Visible Absorptance

OS:Material,
  {990977ff-6174-486c-816b-4f2833742034}, !- Handle
  Wall Insulation [31],                   !- Name
  MediumRough,                            !- Roughness
  0.0337000000000001,                     !- Thickness {m}
  0.0432,                                 !- Conductivity {W/m-K}
  91,                                     !- Density {kg/m3}
  836.999999999999,                       !- Specific Heat {J/kg-K}
  0.9,                                    !- Thermal Absorptance
  0.5,                                    !- Solar Absorptance
  0.5;                                    !- Visible Absorptance

OS:Construction,
  {cb1a8055-0c5b-499d-8e16-e841588c850e}, !- Handle
  ASHRAE 189.1-2009 ExtWall Mass ClimateZone 2, !- Name
  ,                                       !- Surface Rendering Name
  {01ebc5b3-909a-486a-bb84-043b2977bfcf}, !- Layer 1
  {99f7210e-df41-49a8-8d29-435d8af8a356}, !- Layer 2
  {0a8d1d03-cd33-43d6-b3e5-38a2da6552cc}, !- Layer 3
  {e29666cc-db9f-4d0c-8185-f3c49a1be38a}; !- Layer 4

OS:StandardsInformation:Construction,
  {cb5b1924-1b7f-429e-935c-24cfd542fb01}, !- Handle
  {cb1a8055-0c5b-499d-8e16-e841588c850e}, !- Construction Name
  ExteriorWall,                           !- Intended Surface Type
  Mass;                                   !- Standards Construction Type

OS:Material,
  {0a8d1d03-cd33-43d6-b3e5-38a2da6552cc}, !- Handle
  Wall Insulation [35],                   !- Name
  MediumRough,                            !- Roughness
  0.0452,                                 !- Thickness {m}
  0.0432,                                 !- Conductivity {W/m-K}
  91,                                     !- Density {kg/m3}
  836.999999999999,                       !- Specific Heat {J/kg-K}
  0.9,                                    !- Thermal Absorptance
  0.5,                                    !- Solar Absorptance
  0.5;                                    !- Visible Absorptance

OS:Construction,
  {cf7f6718-d140-4dca-8d00-783d5781d282}, !- Handle
  ASHRAE 189.1-2009 ExtWall Mass ClimateZone 3, !- Name
  ,                                       !- Surface Rendering Name
  {01ebc5b3-909a-486a-bb84-043b2977bfcf}, !- Layer 1
  {99f7210e-df41-49a8-8d29-435d8af8a356}, !- Layer 2
  {fd182b9c-5e3a-437c-b558-443b8069e1ca}, !- Layer 3
  {e29666cc-db9f-4d0c-8185-f3c49a1be38a}; !- Layer 4

OS:StandardsInformation:Construction,
  {e0781b2e-c3c1-4d2e-a66d-f6831bb1006b}, !- Handle
  {cf7f6718-d140-4dca-8d00-783d5781d282}, !- Construction Name
  ExteriorWall,                           !- Intended Surface Type
  Mass;                                   !- Standards Construction Type

OS:Material,
  {fd182b9c-5e3a-437c-b558-443b8069e1ca}, !- Handle
  Wall Insulation [36],                   !- Name
  MediumRough,                            !- Roughness
  0.0565999999999999,                     !- Thickness {m}
  0.0432,                                 !- Conductivity {W/m-K}
  91,                                     !- Density {kg/m3}
  836.999999999999,                       !- Specific Heat {J/kg-K}
  0.9,                                    !- Thermal Absorptance
  0.5,                                    !- Solar Absorptance
  0.5;                                    !- Visible Absorptance

OS:Construction,
  {4934d21f-7b78-43eb-a711-f276afc98078}, !- Handle
  ASHRAE 189.1-2009 ExtWall Mass ClimateZone 4, !- Name
  ,                                       !- Surface Rendering Name
  {01ebc5b3-909a-486a-bb84-043b2977bfcf}, !- Layer 1
  {99f7210e-df41-49a8-8d29-435d8af8a356}, !- Layer 2
  {2c7a3081-edad-4695-8b4f-bd527ba2d652}, !- Layer 3
  {e29666cc-db9f-4d0c-8185-f3c49a1be38a}; !- Layer 4

OS:StandardsInformation:Construction,
  {764076b0-41d7-4290-8be5-21254aec29f1}, !- Handle
  {4934d21f-7b78-43eb-a711-f276afc98078}, !- Construction Name
  ExteriorWall,                           !- Intended Surface Type
  Mass;                                   !- Standards Construction Type

OS:Material,
  {2c7a3081-edad-4695-8b4f-bd527ba2d652}, !- Handle
  Wall Insulation [37],                   !- Name
  MediumRough,                            !- Roughness
  0.0680999999999999,                     !- Thickness {m}
  0.0432,                                 !- Conductivity {W/m-K}
  91,                                     !- Density {kg/m3}
  836.999999999999,                       !- Specific Heat {J/kg-K}
  0.9,                                    !- Thermal Absorptance
  0.5,                                    !- Solar Absorptance
  0.5;                                    !- Visible Absorptance

OS:Construction,
  {20edc9f7-50dd-401c-973f-22ba1c6dccc3}, !- Handle
  ASHRAE 189.1-2009 ExtWall Mass ClimateZone 5, !- Name
  ,                                       !- Surface Rendering Name
  {01ebc5b3-909a-486a-bb84-043b2977bfcf}, !- Layer 1
  {99f7210e-df41-49a8-8d29-435d8af8a356}, !- Layer 2
  {0e56f0a4-2ad5-4763-a58f-b5c7a53cced5}, !- Layer 3
  {e29666cc-db9f-4d0c-8185-f3c49a1be38a}; !- Layer 4

OS:StandardsInformation:Construction,
  {3357b4a4-0ac5-41c3-9667-0691fc8245f8}, !- Handle
  {20edc9f7-50dd-401c-973f-22ba1c6dccc3}, !- Construction Name
  ExteriorWall,                           !- Intended Surface Type
  Mass;                                   !- Standards Construction Type

OS:Material,
  {0e56f0a4-2ad5-4763-a58f-b5c7a53cced5}, !- Handle
  Wall Insulation [40],                   !- Name
  MediumRough,                            !- Roughness
  0.0793999999999999,                     !- Thickness {m}
  0.0432,                                 !- Conductivity {W/m-K}
  91,                                     !- Density {kg/m3}
  836.999999999999,                       !- Specific Heat {J/kg-K}
  0.9,                                    !- Thermal Absorptance
  0.5,                                    !- Solar Absorptance
  0.5;                                    !- Visible Absorptance

OS:Construction,
  {9817c0a9-d729-489d-91cd-dc0ccd539ad3}, !- Handle
  ASHRAE 189.1-2009 ExtWall Mass ClimateZone 6, !- Name
  ,                                       !- Surface Rendering Name
  {01ebc5b3-909a-486a-bb84-043b2977bfcf}, !- Layer 1
  {99f7210e-df41-49a8-8d29-435d8af8a356}, !- Layer 2
  {0ca708de-67b3-4bee-bb43-b3d9ae47de2f}, !- Layer 3
  {e29666cc-db9f-4d0c-8185-f3c49a1be38a}; !- Layer 4

OS:StandardsInformation:Construction,
  {40134307-b1d6-4611-b113-92ff8c9646e0}, !- Handle
  {9817c0a9-d729-489d-91cd-dc0ccd539ad3}, !- Construction Name
  ExteriorWall,                           !- Intended Surface Type
  Mass;                                   !- Standards Construction Type

OS:Material,
  {0ca708de-67b3-4bee-bb43-b3d9ae47de2f}, !- Handle
  Wall Insulation [42],                   !- Name
  MediumRough,                            !- Roughness
  0.0913999999999999,                     !- Thickness {m}
  0.0432,                                 !- Conductivity {W/m-K}
  91,                                     !- Density {kg/m3}
  836.999999999999,                       !- Specific Heat {J/kg-K}
  0.9,                                    !- Thermal Absorptance
  0.5,                                    !- Solar Absorptance
  0.5;                                    !- Visible Absorptance

OS:Construction,
  {4ca678ab-d4b4-4ea2-9f5d-e685652ba217}, !- Handle
  ASHRAE 189.1-2009 ExtWall Mass ClimateZone 7-8, !- Name
  ,                                       !- Surface Rendering Name
  {01ebc5b3-909a-486a-bb84-043b2977bfcf}, !- Layer 1
  {99f7210e-df41-49a8-8d29-435d8af8a356}, !- Layer 2
  {e470af30-a47c-425d-9018-c6fa4a8ceb95}, !- Layer 3
  {e29666cc-db9f-4d0c-8185-f3c49a1be38a}; !- Layer 4

OS:StandardsInformation:Construction,
  {060c6bf5-ad02-4724-9845-becd4a466818}, !- Handle
  {4ca678ab-d4b4-4ea2-9f5d-e685652ba217}, !- Construction Name
  ExteriorWall,                           !- Intended Surface Type
  Mass;                                   !- Standards Construction Type

OS:Material,
  {e470af30-a47c-425d-9018-c6fa4a8ceb95}, !- Handle
  Wall Insulation [44],                   !- Name
  MediumRough,                            !- Roughness
  0.1104,                                 !- Thickness {m}
  0.0432,                                 !- Conductivity {W/m-K}
  91,                                     !- Density {kg/m3}
  836.999999999999,                       !- Specific Heat {J/kg-K}
  0.9,                                    !- Thermal Absorptance
  0.5,                                    !- Solar Absorptance
  0.5;                                    !- Visible Absorptance

OS:Construction,
  {6c3db1bc-fe62-48c0-89e4-9b4548d658d3}, !- Handle
  ASHRAE 189.1-2009 ExtWall Mass ClimateZone alt-res 1, !- Name
  ,                                       !- Surface Rendering Name
  {01ebc5b3-909a-486a-bb84-043b2977bfcf}, !- Layer 1
  {99f7210e-df41-49a8-8d29-435d8af8a356}, !- Layer 2
  {0a8d1d03-cd33-43d6-b3e5-38a2da6552cc}, !- Layer 3
  {e29666cc-db9f-4d0c-8185-f3c49a1be38a}; !- Layer 4

OS:StandardsInformation:Construction,
  {11940fa4-d99c-4c27-afe1-141e4ce41263}, !- Handle
  {6c3db1bc-fe62-48c0-89e4-9b4548d658d3}, !- Construction Name
  ExteriorWall,                           !- Intended Surface Type
  Mass;                                   !- Standards Construction Type

OS:Construction,
  {f0f0f673-bb9a-4b65-a8ba-aae178bd8dce}, !- Handle
  ASHRAE 189.1-2009 ExtWall Mass ClimateZone alt-res 2, !- Name
  ,                                       !- Surface Rendering Name
  {01ebc5b3-909a-486a-bb84-043b2977bfcf}, !- Layer 1
  {99f7210e-df41-49a8-8d29-435d8af8a356}, !- Layer 2
  {fd182b9c-5e3a-437c-b558-443b8069e1ca}, !- Layer 3
  {e29666cc-db9f-4d0c-8185-f3c49a1be38a}; !- Layer 4

OS:StandardsInformation:Construction,
  {a428fa78-c052-4d9b-883f-b5eeb21ce0d5}, !- Handle
  {f0f0f673-bb9a-4b65-a8ba-aae178bd8dce}, !- Construction Name
  ExteriorWall,                           !- Intended Surface Type
  Mass;                                   !- Standards Construction Type

OS:Construction,
  {2662a747-fa52-4529-b19d-18716204fa54}, !- Handle
  ASHRAE 189.1-2009 ExtWall Mass ClimateZone alt-res 3, !- Name
  ,                                       !- Surface Rendering Name
  {01ebc5b3-909a-486a-bb84-043b2977bfcf}, !- Layer 1
  {99f7210e-df41-49a8-8d29-435d8af8a356}, !- Layer 2
  {2c7a3081-edad-4695-8b4f-bd527ba2d652}, !- Layer 3
  {e29666cc-db9f-4d0c-8185-f3c49a1be38a}; !- Layer 4

OS:StandardsInformation:Construction,
  {bbf43d4f-6c26-4a40-a948-966f88a174c6}, !- Handle
  {2662a747-fa52-4529-b19d-18716204fa54}, !- Construction Name
  ExteriorWall,                           !- Intended Surface Type
  Mass;                                   !- Standards Construction Type

OS:Construction,
  {be2016bb-74a1-4154-9720-b9fa4d6a9c7b}, !- Handle
  ASHRAE 189.1-2009 ExtWall Mass ClimateZone alt-res 4, !- Name
  ,                                       !- Surface Rendering Name
  {01ebc5b3-909a-486a-bb84-043b2977bfcf}, !- Layer 1
  {99f7210e-df41-49a8-8d29-435d8af8a356}, !- Layer 2
  {0e56f0a4-2ad5-4763-a58f-b5c7a53cced5}, !- Layer 3
  {e29666cc-db9f-4d0c-8185-f3c49a1be38a}; !- Layer 4

OS:StandardsInformation:Construction,
  {cb8e0c63-f863-4176-961b-439eec9cba4c}, !- Handle
  {be2016bb-74a1-4154-9720-b9fa4d6a9c7b}, !- Construction Name
  ExteriorWall,                           !- Intended Surface Type
  Mass;                                   !- Standards Construction Type

OS:Construction,
  {db6348cd-c4d7-4791-8c1c-210b0eadb191}, !- Handle
  ASHRAE 189.1-2009 ExtWall Mass ClimateZone alt-res 5, !- Name
  ,                                       !- Surface Rendering Name
  {01ebc5b3-909a-486a-bb84-043b2977bfcf}, !- Layer 1
  {99f7210e-df41-49a8-8d29-435d8af8a356}, !- Layer 2
  {0ca708de-67b3-4bee-bb43-b3d9ae47de2f}, !- Layer 3
  {e29666cc-db9f-4d0c-8185-f3c49a1be38a}; !- Layer 4

OS:StandardsInformation:Construction,
  {07a8fd59-34c4-409a-ad89-4d1a487f62bf}, !- Handle
  {db6348cd-c4d7-4791-8c1c-210b0eadb191}, !- Construction Name
  ExteriorWall,                           !- Intended Surface Type
  Mass;                                   !- Standards Construction Type

OS:Construction,
  {73511086-c47a-42f9-a0ca-4c3e34d3c972}, !- Handle
  ASHRAE 189.1-2009 ExtWall Mass ClimateZone alt-res 6, !- Name
  ,                                       !- Surface Rendering Name
  {01ebc5b3-909a-486a-bb84-043b2977bfcf}, !- Layer 1
  {99f7210e-df41-49a8-8d29-435d8af8a356}, !- Layer 2
  {e470af30-a47c-425d-9018-c6fa4a8ceb95}, !- Layer 3
  {e29666cc-db9f-4d0c-8185-f3c49a1be38a}; !- Layer 4

OS:StandardsInformation:Construction,
  {dcd12277-33bb-47fe-94c3-f99dfb0c69db}, !- Handle
  {73511086-c47a-42f9-a0ca-4c3e34d3c972}, !- Construction Name
  ExteriorWall,                           !- Intended Surface Type
  Mass;                                   !- Standards Construction Type

OS:Construction,
  {057b6810-7aef-4305-a432-911c17e58e98}, !- Handle
  ASHRAE 189.1-2009 ExtWall Mass ClimateZone alt-res 7, !- Name
  ,                                       !- Surface Rendering Name
  {01ebc5b3-909a-486a-bb84-043b2977bfcf}, !- Layer 1
  {99f7210e-df41-49a8-8d29-435d8af8a356}, !- Layer 2
  {e470af30-a47c-425d-9018-c6fa4a8ceb95}, !- Layer 3
  {e29666cc-db9f-4d0c-8185-f3c49a1be38a}; !- Layer 4

OS:StandardsInformation:Construction,
  {515a56fb-e9f6-4fdc-b32a-2970129c508c}, !- Handle
  {057b6810-7aef-4305-a432-911c17e58e98}, !- Construction Name
  ExteriorWall,                           !- Intended Surface Type
  Mass;                                   !- Standards Construction Type

OS:Construction,
  {68bf34ee-37f1-49f9-aebd-08f32eb6545f}, !- Handle
  ASHRAE 189.1-2009 ExtWall Mass ClimateZone alt-res 8, !- Name