
OS:Version,
  {347787b7-f8ba-4bab-9928-c2e339790e2b}, !- Handle
  1.3.3;                                  !- Version Identifier

OS:Construction,
  {4e8b3b32-fd39-44e9-a6ab-b320877dea01}, !- Handle
  ASHRAE 189.1-2009 AtticFloor ClimateZone 1-8, !- Name
  ,                                       !- Surface Rendering Name
  {862bc591-105d-4ae3-bb39-88cc0d99fcf5}, !- Layer 1
  {72dc9940-da1b-42eb-86b3-1813dcb4e423}, !- Layer 2
  {862bc591-105d-4ae3-bb39-88cc0d99fcf5}; !- Layer 3

OS:StandardsInformation:Construction,
  {8ab93459-3706-454e-b918-8a359ba44a01}, !- Handle
  {4e8b3b32-fd39-44e9-a6ab-b320877dea01}, !- Construction Name
  AtticFloor,                             !- Intended Surface Type
  WoodFramed;                             !- Standards Construction Type

OS:Material,
  {862bc591-105d-4ae3-bb39-88cc0d99fcf5}, !- Handle
  1/2IN Gypsum,                           !- Name
  Smooth,                                 !- Roughness
  0.0127,                                 !- Thickness {m}
  0.16,                                   !- Conductivity {W/m-K}
  784.9,                                  !- Density {kg/m3}
  830.000000000001,                       !- Specific Heat {J/kg-K}
  0.9,                                    !- Thermal Absorptance
  0.4,                                    !- Solar Absorptance
  0.4;                                    !- Visible Absorptance

OS:Material,
  {72dc9940-da1b-42eb-86b3-1813dcb4e423}, !- Handle
  AtticFloor Insulation,                  !- Name
  MediumRough,                            !- Roughness
  0.2379,                                 !- Thickness {m}
  0.049,                                  !- Conductivity {W/m-K}
  265,                                    !- Density {kg/m3}
  836.800000000001,                       !- Specific Heat {J/kg-K}
  0.9,                                    !- Thermal Absorptance
  0.7,                                    !- Solar Absorptance
  0.7;                                    !- Visible Absorptance

OS:Construction,
  {a04bbdc8-0b61-44a8-840a-d6bf7ae59746}, !- Handle
  ASHRAE 189.1-2009 ExtRoof IEAD ClimateZone 1, !- Name
  ,                                       !- Surface Rendering Name
  {03251441-ffcd-4e34-9bbb-2c9d96b82e33}, !- Layer 1
  {6250e968-999c-4dc8-9092-19025560cd77}, !- Layer 2
  {1935cd36-3f35-4a63-b5d7-04d82735f162}; !- Layer 3

OS:StandardsInformation:Construction,
  {eab76f5d-afe9-4559-8a58-606ad93f2ed1}, !- Handle
  {a04bbdc8-0b61-44a8-840a-d6bf7ae59746}, !- Construction Name
  ExteriorRoof,                           !- Intended Surface Type
  IEAD;                                   !- Standards Construction Type

OS:Material,
  {03251441-ffcd-4e34-9bbb-2c9d96b82e33}, !- Handle
  Roof Membrane,                          !- Name
  VeryRough,                              !- Roughness
  0.0095,                                 !- Thickness {m}
  0.16,                                   !- Conductivity {W/m-K}
  1121.29,                                !- Density {kg/m3}
  1460,                                   !- Specific Heat {J/kg-K}
  0.9,                                    !- Thermal Absorptance
  0.7,                                    !- Solar Absorptance
  0.7;                                    !- Visible Absorptance

OS:Material,
  {6250e968-999c-4dc8-9092-19025560cd77}, !- Handle
  Roof Insulation [18],                   !- Name
  MediumRough,                            !- Roughness
  0.1693,                                 !- Thickness {m}
  0.049,                                  !- Conductivity {W/m-K}
  265,                                    !- Density {kg/m3}
  836.800000000001,                       !- Specific Heat {J/kg-K}
  0.9,                                    !- Thermal Absorptance
  0.7,                                    !- Solar Absorptance
  0.7;                                    !- Visible Absorptance

OS:Material,
  {1935cd36-3f35-4a63-b5d7-04d82735f162}, !- Handle
  Metal Decking,                          !- Name
  MediumSmooth,                           !- Roughness
  0.0015,                                 !- Thickness {m}
  45.006,                                 !- Conductivity {W/m-K}
  7680,                                   !- Density {kg/m3}
  418.4,                                  !- Specific Heat {J/kg-K}
  0.9,                                    !- Thermal Absorptance
  0.6,                                    !- Solar Absorptance
  0.6;                                    !- Visible Absorptance

OS:Construction,
  {27093223-95e4-4c72-8e96-8f798f78670b}, !- Handle
  ASHRAE 189.1-2009 ExtRoof IEAD ClimateZone 2-5, !- Name
  ,                                       !- Surface Rendering Name
  {03251441-ffcd-4e34-9bbb-2c9d96b82e33}, !- Layer 1
  {6a25b129-7306-4c14-816e-03d19d1809a2}, !- Layer 2
  {1935cd36-3f35-4a63-b5d7-04d82735f162}; !- Layer 3

OS:StandardsInformation:Construction,
  {781ea626-8679-4beb-82c1-7052416f379b}, !- Handle
  {27093223-95e4-4c72-8e96-8f798f78670b}, !- Construction Name
  ExteriorRoof,                           !- Intended Surface Type
  IEAD;                                   !- Standards Construction Type

OS:Material,
  {6a25b129-7306-4c14-816e-03d19d1809a2}, !- Handle
  Roof Insulation [21],                   !- Name
  MediumRough,                            !- Roughness
  0.2105,                                 !- Thickness {m}
  0.049,                                  !- Conductivity {W/m-K}
  265,                                    !- Density {kg/m3}
  836.800000000001,                       !- Specific Heat {J/kg-K}
  0.9,                                    !- Thermal Absorptance
  0.7,                                    !- Solar Absorptance
  0.7;                                    !- Visible Absorptance

OS:Construction,
  {489ef561-a022-479f-8f9b-c4b32397dc94}, !- Handle
  ASHRAE 189.1-2009 ExtRoof IEAD ClimateZone 6, !- Name
  ,                                       !- Surface Rendering Name
  {03251441-ffcd-4e34-9bbb-2c9d96b82e33}, !- Layer 1
  {5cc86aae-b810-42e8-82a2-8fb4ce21eda6}, !- Layer 2
  {1935cd36-3f35-4a63-b5d7-04d82735f162}; !- Layer 3

OS:StandardsInformation:Construction,
  {2fe18ac4-29e2-4d2b-943b-846bdaf6f77c}, !- Handle
  {489ef561-a022-479f-8f9b-c4b32397dc94}, !- Construction Name
  ExteriorRoof,                           !- Intended Surface Type
  IEAD;                                   !- Standards Construction Type

OS:Material,
  {5cc86aae-b810-42e8-82a2-8fb4ce21eda6}, !- Handle
  Roof Insulation [24],                   !- Name
  MediumRough,                            !- Roughness
  0.260100000000001,                      !- Thickness {m}
  0.049,                                  !- Conductivity {W/m-K}
  265,                                    !- Density {kg/m3}
  836.800000000001,                       !- Specific Heat {J/kg-K}
  0.9,                                    !- Thermal Absorptance
  0.7,                                    !- Solar Absorptance
  0.7;                                    !- Visible Absorptance

OS:Construction,
  {89b1a731-004c-4010-b840-85b575d598ff}, !- Handle
  ASHRAE 189.1-2009 ExtRoof IEAD ClimateZone 7-8, !- Name
  ,                                       !- Surface Rendering Name
  {03251441-ffcd-4e34-9bbb-2c9d96b82e33}, !- Layer 1
  {9187c300-035d-430e-b772-698267549f75}, !- Layer 2
  {1935cd36-3f35-4a63-b5d7-04d82735f162}; !- Layer 3

OS:StandardsInformation:Construction,
  {f4747954-2631-4c4a-b7f0-44e1e1c05033}, !- Handle
  {89b1a731-004c-4010-b840-85b575d598ff}, !- Construction Name
  ExteriorRoof,                           !- Intended Surface Type
  IEAD;                                   !- Standards Construction Type

OS:Material,
  {9187c300-035d-430e-b772-698267549f75}, !- Handle
  Roof Insulation [26],                   !- Name
  MediumRough,                            !- Roughness
  0.2941,                                 !- Thickness {m}
  0.049,                                  !- Conductivity {W/m-K}
  265,                                    !- Density {kg/m3}
  836.800000000001,                       !- Specific Heat {J/kg-K}
  0.9,                                    !- Thermal Absorptance
  0.7,                                    !- Solar Absorptance
  0.7;                                    !- Visible Absorptance

OS:Construction,
  {d82f04f5-bc5b-4eaa-8b46-7f48fcfcb8a6}, !- Handle
  ASHRAE 189.1-2009 ExtRoof Metal ClimateZone 1, !- Name
  ,                                       !- Surface Rendering Name
  {16c957f4-30a2-4309-9334-5cff18af8ed1}, !- Layer 1
  {f00ba3b7-bac7-4630-883d-c1b6eef8672c}, !- Layer 2
  {1935cd36-3f35-4a63-b5d7-04d82735f162}; !- Layer 3

OS:StandardsInformation:Construction,
  {31a88210-e5fb-4f3e-a051-8e3d94c290ec}, !- Handle
  {d82f04f5-bc5b-4eaa-8b46-7f48fcfcb8a6}, !- Construction Name
  ExteriorRoof,                           !- Intended Surface Type
  Metal;                                  !- Standards Construction Type

OS:Material,
  {16c957f4-30a2-4309-9334-5cff18af8ed1}, !- Handle
  Metal Roofing,                          !- Name
  MediumSmooth,                           !- Roughness
  0.0015,                                 !- Thickness {m}
  45.006,                                 !- Conductivity {W/m-K}
  7680,                                   !- Density {kg/m3}
  418.4,                                  !- Specific Heat {J/kg-K}
  0.9,                                    !- Thermal Absorptance
  0.6,                                    !- Solar Absorptance
  0.6;                                    !- Visible Absorptance

OS:Material,
  {f00ba3b7-bac7-4630-883d-c1b6eef8672c}, !- Handle
  Roof Insulation [19],                   !- Name
  MediumRough,                            !- Roughness
  0.1868,                                 !- Thickness {m}
  0.049,                                  !- Conductivity {W/m-K}
  265,                                    !- Density {kg/m3}
  836.800000000001,                       !- Specific Heat {J/kg-K}
  0.9,                                    !- Thermal Absorptance
  0.7,                                    !- Solar Absorptance
  0.7;                                    !- Visible Absorptance

OS:Construction,
  {df506310-be2a-46bd-b890-d6cea20d1d59}, !- Handle
  ASHRAE 189.1-2009 ExtRoof Metal ClimateZone 2-5, !- Name
  ,                                       !- Surface Rendering Name
  {16c957f4-30a2-4309-9334-5cff18af8ed1}, !- Layer 1
  {694f299c-154a-4c33-8a47-da914d28ed49}, !- Layer 2
  {1935cd36-3f35-4a63-b5d7-04d82735f162}; !- Layer 3

OS:StandardsInformation:Construction,
  {e524a067-b3dc-4e0e-9c24-17b8a6b6753b}, !- Handle
  {df506310-be2a-46bd-b890-d6cea20d1d59}, !- Construction Name
  ExteriorRoof,                           !- Intended Surface Type
  Metal;                                  !- Standards Construction Type

OS:Material,
  {694f299c-154a-4c33-8a47-da914d28ed49}, !- Handle
  Roof Insulation [22],                   !- Name
  MediumRough,                            !- Roughness
  0.2358,                                 !- Thickness {m}
  0.049,                                  !- Conductivity {W/m-K}
  265,                                    !- Density {kg/m3}
  836.800000000001,                       !- Specific Heat {J/kg-K}
  0.9,                                    !- Thermal Absorptance
  0.7,                                    !- Solar Absorptance
  0.7;                                    !- Visible Absorptance

OS:Construction,
  {aa646788-48b2-4d9a-8a5e-382664b19d90}, !- Handle
  ASHRAE 189.1-2009 ExtRoof Metal ClimateZone 6, !- Name
  ,                                       !- Surface Rendering Name
  {16c957f4-30a2-4309-9334-5cff18af8ed1}, !- Layer 1
  {e75fac51-f962-4d14-8ddb-7ff17f4fa14a}, !- Layer 2
  {1935cd36-3f35-4a63-b5d7-04d82735f162}; !- Layer 3

OS:StandardsInformation:Construction,
  {cdebe634-9456-4ef4-9410-b23be1449c3b}, !- Handle
  {aa646788-48b2-4d9a-8a5e-382664b19d90}, !- Construction Name
  ExteriorRoof,                           !- Intended Surface Type
  Metal;                                  !- Standards Construction Type

OS:Material,
  {e75fac51-f962-4d14-8ddb-7ff17f4fa14a}, !- Handle
  Roof Insulation [25],                   !- Name
  MediumRough,                            !- Roughness
  0.263,                                  !- Thickness {m}
  0.049,                                  !- Conductivity {W/m-K}
  265,                                    !- Density {kg/m3}
  836.800000000001,                       !- Specific Heat {J/kg-K}
  0.9,                                    !- Thermal Absorptance
  0.7,                                    !- Solar Absorptance
  0.7;                                    !- Visible Absorptance

OS:Construction,
  {b5e16e07-e27e-47c6-9969-8d6dac30f449}, !- Handle
  ASHRAE 189.1-2009 ExtRoof Metal ClimateZone 7-8, !- Name
  ,                                       !- Surface Rendering Name
  {16c957f4-30a2-4309-9334-5cff18af8ed1}, !- Layer 1
  {133f004c-edc8-44ba-9f8e-167dec2b6f81}, !- Layer 2
  {1935cd36-3f35-4a63-b5d7-04d82735f162}; !- Layer 3

OS:StandardsInformation:Construction,
  {6b444348-de38-49fe-b6b7-2eb1228d2f84}, !- Handle
  {b5e16e07-e27e-47c6-9969-8d6dac30f449}, !- Construction Name
  ExteriorRoof,                           !- Intended Surface Type
  Metal;                                  !- Standards Construction Type

OS:Material,
  {133f004c-edc8-44ba-9f8e-167dec2b6f81}, !- Handle
  Roof Insulation [27],                   !- Name
  MediumRough,                            !- Roughness
  0.297000000000001,                      !- Thickness {m}
  0.049,                                  !- Conductivity {W/m-K}
  265,                                    !- Density {kg/m3}
  836.800000000001,                       !- Specific Heat {J/kg-K}
  0.9,                                    !- Thermal Absorptance
  0.7,                                    !- Solar Absorptance
  0.7;                                    !- Visible Absorptance

OS:Construction,
  {46f7a1c5-596d-4fb6-b045-be05bcbd0da4}, !- Handle
  ASHRAE 189.1-2009 ExtWall Mass ClimateZone 1, !- Name
  ,                                       !- Surface Rendering Name
  {8f4ef37d-19c4-4c8a-ac9c-5d52548ba098}, !- Layer 1
  {f7bcc041-7c62-411d-9289-36039ba91f58}, !- Layer 2
  {b8f06b99-ce51-436f-9b91-c5c065f801d0}, !- Layer 3
  {862bc591-105d-4ae3-bb39-88cc0d99fcf5}; !- Layer 4

OS:StandardsInformation:Construction,
  {d744ead7-4d6a-46c0-b3a0-4d54353dc6a5}, !- Handle
  {46f7a1c5-596d-4fb6-b045-be05bcbd0da4}, !- Construction Name
  ExteriorWall,                           !- Intended Surface Type
  Mass;                                   !- Standards Construction Type

OS:Material,
  {8f4ef37d-19c4-4c8a-ac9c-5d52548ba098}, !- Handle
  1IN Stucco,                             !- Name
  Smooth,                                 !- Roughness
  0.0253,                                 !- Thickness {m}
  0.691799999999999,                      !- Conductivity {W/m-K}
  1858,                                   !- Density {kg/m3}
  836.999999999999,                       !- Specific Heat {J/kg-K}
  0.9,                                    !- Thermal Absorptance
  0.92,                                   !- Solar Absorptance
  0.92;                                   !- Visible Absorptance

OS:Material,
  {f7bcc041-7c62-411d-9289-36039ba91f58}, !- Handle
  8IN Concrete HW,                        !- Name
  MediumRough,                            !- Roughness
  0.2033,                                 !- Thickness {m}
  1.72959999999999,                       !- Conductivity {W/m-K}
  2242.99999999999,                       !- Density {kg/m3}
  836.999999999999,                       !- Specific Heat {J/kg-K}
  0.9,                                    !- Thermal Absorptance
  0.65,                                   !- Solar Absorptance
  0.65;                                   !- Visible Absorptance

OS:Material,
  {b8f06b99-ce51-436f-9b91-c5c065f801d0}, !- Handle
  Wall Insulation [31],                   !- Name
  MediumRough,                            !- Roughness
  0.0337000000000001,                     !- Thickness {m}
  0.0432,                                 !- Conductivity {W/m-K}
  91,                                     !- Density {kg/m3}
  836.999999999999,                       !- Specific Heat {J/kg-K}
  0.9,                                    !- Thermal Absorptance
  0.5,                                    !- Solar Absorptance
  0.5;                                    !- Visible Absorptance

OS:Construction,
  {5bc012a5-4ee2-4c53-82f0-c709f4c98c23}, !- Handle
  ASHRAE 189.1-2009 ExtWall Mass ClimateZone 2, !- Name
  ,                                       !- Surface Rendering Name
  {8f4ef37d-19c4-4c8a-ac9c-5d52548ba098}, !- Layer 1
  {f7bcc041-7c62-411d-9289-36039ba91f58}, !- Layer 2
  {dc44b56c-132f-4d80-b5ab-b22c62d1bf62}, !- Layer 3
  {862bc591-105d-4ae3-bb39-88cc0d99fcf5}; !- Layer 4

OS:StandardsInformation:Construction,
  {6c171c1f-ed27-44fe-9090-f49a2246877d}, !- Handle
  {5bc012a5-4ee2-4c53-82f0-c709f4c98c23}, !- Construction Name
  ExteriorWall,                           !- Intended Surface Type
  Mass;                                   !- Standards Construction Type

OS:Material,
  {dc44b56c-132f-4d80-b5ab-b22c62d1bf62}, !- Handle
  Wall Insulation [35],                   !- Name
  MediumRough,                            !- Roughness
  0.0452,                                 !- Thickness {m}
  0.0432,                                 !- Conductivity {W/m-K}
  91,                                     !- Density {kg/m3}
  836.999999999999,                       !- Specific Heat {J/kg-K}
  0.9,                                    !- Thermal Absorptance
  0.5,                                    !- Solar Absorptance
  0.5;                                    !- Visible Absorptance

OS:Construction,
  {a2c5bffa-46b9-431c-bb63-963fbf7f69ee}, !- Handle
  ASHRAE 189.1-2009 ExtWall Mass ClimateZone 3, !- Name
  ,                                       !- Surface Rendering Name
  {8f4ef37d-19c4-4c8a-ac9c-5d52548ba098}, !- Layer 1
  {f7bcc041-7c62-411d-9289-36039ba91f58}, !- Layer 2
  {66b6b400-4748-4171-aec4-b9e7cb5fcd0e}, !- Layer 3
  {862bc591-105d-4ae3-bb39-88cc0d99fcf5}; !- Layer 4

OS:StandardsInformation:Construction,
  {d85baa73-7c89-4593-bb37-f01d6c70c135}, !- Handle
  {a2c5bffa-46b9-431c-bb63-963fbf7f69ee}, !- Construction Name
  ExteriorWall,                           !- Intended Surface Type
  Mass;                                   !- Standards Construction Type

OS:Material,
  {66b6b400-4748-4171-aec4-b9e7cb5fcd0e}, !- Handle
  Wall Insulation [36],                   !- Name
  MediumRough,                            !- Roughness
  0.0565999999999999,                     !- Thickness {m}
  0.0432,                                 !- Conductivity {W/m-K}
  91,                                     !- Density {kg/m3}
  836.999999999999,                       !- Specific Heat {J/kg-K}
  0.9,                                    !- Thermal Absorptance
  0.5,                                    !- Solar Absorptance
  0.5;                                    !- Visible Absorptance

OS:Construction,
  {5c06f823-ff6f-4700-8b4a-5d0f0c0f8d96}, !- Handle
  ASHRAE 189.1-2009 ExtWall Mass ClimateZone 4, !- Name
  ,                                       !- Surface Rendering Name
  {8f4ef37d-19c4-4c8a-ac9c-5d52548ba098}, !- Layer 1
  {f7bcc041-7c62-411d-9289-36039ba91f58}, !- Layer 2
  {e68e744a-c943-40c1-a95f-076fb43d5cdc}, !- Layer 3
  {862bc591-105d-4ae3-bb39-88cc0d99fcf5}; !- Layer 4

OS:StandardsInformation:Construction,
  {d7071557-e11c-4f07-9865-d9a41126d0f2}, !- Handle
  {5c06f823-ff6f-4700-8b4a-5d0f0c0f8d96}, !- Construction Name
  ExteriorWall,                           !- Intended Surface Type
  Mass;                                   !- Standards Construction Type

OS:Material,
  {e68e744a-c943-40c1-a95f-076fb43d5cdc}, !- Handle
  Wall Insulation [37],                   !- Name
  MediumRough,                            !- Roughness
  0.0680999999999999,                     !- Thickness {m}
  0.0432,                                 !- Conductivity {W/m-K}
  91,                                     !- Density {kg/m3}
  836.999999999999,                       !- Specific Heat {J/kg-K}
  0.9,                                    !- Thermal Absorptance
  0.5,                                    !- Solar Absorptance
  0.5;                                    !- Visible Absorptance

OS:Construction,
  {818bf61e-3a42-4d15-bf1e-563d2af94b39}, !- Handle
  ASHRAE 189.1-2009 ExtWall Mass ClimateZone 5, !- Name
  ,                                       !- Surface Rendering Name
  {8f4ef37d-19c4-4c8a-ac9c-5d52548ba098}, !- Layer 1
  {f7bcc041-7c62-411d-9289-36039ba91f58}, !- Layer 2
  {5dd92c4c-fe74-4773-ba2f-63bff3052c1a}, !- Layer 3
  {862bc591-105d-4ae3-bb39-88cc0d99fcf5}; !- Layer 4

OS:StandardsInformation:Construction,
  {e127271f-73b3-40f5-a219-1e0f436829d2}, !- Handle
  {818bf61e-3a42-4d15-bf1e-563d2af94b39}, !- Construction Name
  ExteriorWall,                           !- Intended Surface Type
  Mass;                                   !- Standards Construction Type

OS:Material,
  {5dd92c4c-fe74-4773-ba2f-63bff3052c1a}, !- Handle
  Wall Insulation [40],                   !- Name
  MediumRough,                            !- Roughness
  0.0793999999999999,                     !- Thickness {m}
  0.0432,                                 !- Conductivity {W/m-K}
  91,                                     !- Density {kg/m3}
  836.999999999999,                       !- Specific Heat {J/kg-K}
  0.9,                                    !- Thermal Absorptance
  0.5,                                    !- Solar Absorptance
  0.5;                                    !- Visible Absorptance

OS:Construction,
  {8c594c40-5194-4ace-acdc-225a307d5456}, !- Handle
  ASHRAE 189.1-2009 ExtWall Mass ClimateZone 6, !- Name
  ,                                       !- Surface Rendering Name
  {8f4ef37d-19c4-4c8a-ac9c-5d52548ba098}, !- Layer 1
  {f7bcc041-7c62-411d-9289-36039ba91f58}, !- Layer 2
  {52bad62e-e9c5-41ea-981f-19e11e245b3c}, !- Layer 3
  {862bc591-105d-4ae3-bb39-88cc0d99fcf5}; !- Layer 4

OS:StandardsInformation:Construction,
  {42739638-f0ec-4776-a18e-f1b241a8ddd6}, !- Handle
  {8c594c40-5194-4ace-acdc-225a307d5456}, !- Construction Name
  ExteriorWall,                           !- Intended Surface Type
  Mass;                                   !- Standards Construction Type

OS:Material,
  {52bad62e-e9c5-41ea-981f-19e11e245b3c}, !- Handle
  Wall Insulation [42],                   !- Name
  MediumRough,                            !- Roughness
  0.0913999999999999,                     !- Thickness {m}
  0.0432,                                 !- Conductivity {W/m-K}
  91,                                     !- Density {kg/m3}
  836.999999999999,                       !- Specific Heat {J/kg-K}
  0.9,                                    !- Thermal Absorptance
  0.5,                                    !- Solar Absorptance
  0.5;                                    !- Visible Absorptance

OS:Construction,
  {5ced708b-40a8-4a9c-9685-a785c5322c13}, !- Handle
  ASHRAE 189.1-2009 ExtWall Mass ClimateZone 7-8, !- Name
  ,                                       !- Surface Rendering Name
  {8f4ef37d-19c4-4c8a-ac9c-5d52548ba098}, !- Layer 1
  {f7bcc041-7c62-411d-9289-36039ba91f58}, !- Layer 2
  {6e6ca284-1298-4e46-9226-fe5fdea40ec6}, !- Layer 3
  {862bc591-105d-4ae3-bb39-88cc0d99fcf5}; !- Layer 4

OS:StandardsInformation:Construction,
  {18b795bb-486e-49a2-a3ce-7974e935f6e1}, !- Handle
  {5ced708b-40a8-4a9c-9685-a785c5322c13}, !- Construction Name
  ExteriorWall,                           !- Intended Surface Type
  Mass;                                   !- Standards Construction Type

OS:Material,
  {6e6ca284-1298-4e46-9226-fe5fdea40ec6}, !- Handle
  Wall Insulation [44],                   !- Name
  MediumRough,                            !- Roughness
  0.1104,                                 !- Thickness {m}
  0.0432,                                 !- Conductivity {W/m-K}
  91,                                     !- Density {kg/m3}
  836.999999999999,                       !- Specific Heat {J/kg-K}
  0.9,                                    !- Thermal Absorptance
  0.5,                                    !- Solar Absorptance
  0.5;                                    !- Visible Absorptance

OS:Construction,
  {544932f7-2c54-4950-b65b-0ecde5b08c32}, !- Handle
  ASHRAE 189.1-2009 ExtWall Mass ClimateZone alt-res 1, !- Name
  ,                                       !- Surface Rendering Name
  {8f4ef37d-19c4-4c8a-ac9c-5d52548ba098}, !- Layer 1
  {f7bcc041-7c62-411d-9289-36039ba91f58}, !- Layer 2
  {dc44b56c-132f-4d80-b5ab-b22c62d1bf62}, !- Layer 3
  {862bc591-105d-4ae3-bb39-88cc0d99fcf5}; !- Layer 4

OS:StandardsInformation:Construction,
  {3cba8a5c-416f-4890-ad2c-1ac86a74d461}, !- Handle
  {544932f7-2c54-4950-b65b-0ecde5b08c32}, !- Construction Name
  ExteriorWall,                           !- Intended Surface Type
  Mass;                                   !- Standards Construction Type

OS:Construction,
  {192b1faa-72bc-49eb-8d5c-6d542c16bd94}, !- Handle
  ASHRAE 189.1-2009 ExtWall Mass ClimateZone alt-res 2, !- Name
  ,                                       !- Surface Rendering Name
  {8f4ef37d-19c4-4c8a-ac9c-5d52548ba098}, !- Layer 1
  {f7bcc041-7c62-411d-9289-36039ba91f58}, !- Layer 2
  {66b6b400-4748-4171-aec4-b9e7cb5fcd0e}, !- Layer 3
  {862bc591-105d-4ae3-bb39-88cc0d99fcf5}; !- Layer 4

OS:StandardsInformation:Construction,
  {10e21a87-9d3e-4e0f-b34b-6e001f2e4e12}, !- Handle
  {192b1faa-72bc-49eb-8d5c-6d542c16bd94}, !- Construction Name
  ExteriorWall,                           !- Intended Surface Type
  Mass;                                   !- Standards Construction Type

OS:Construction,
  {c043d01e-1bde-4861-a9a2-b3ad4a83a3cf}, !- Handle
  ASHRAE 189.1-2009 ExtWall Mass ClimateZone alt-res 3, !- Name
  ,                                       !- Surface Rendering Name
  {8f4ef37d-19c4-4c8a-ac9c-5d52548ba098}, !- Layer 1
  {f7bcc041-7c62-411d-9289-36039ba91f58}, !- Layer 2
  {e68e744a-c943-40c1-a95f-076fb43d5cdc}, !- Layer 3
  {862bc591-105d-4ae3-bb39-88cc0d99fcf5}; !- Layer 4

OS:StandardsInformation:Construction,
  {3b046ed6-ac40-48d1-a0e0-c782a4ec0ecb}, !- Handle
  {c043d01e-1bde-4861-a9a2-b3ad4a83a3cf}, !- Construction Name
  ExteriorWall,                           !- Intended Surface Type
  Mass;                                   !- Standards Construction Type

OS:Construction,
  {6273622a-c2ae-4d98-aa3b-524181d449cc}, !- Handle
  ASHRAE 189.1-2009 ExtWall Mass ClimateZone alt-res 4, !- Name
  ,                                       !- Surface Rendering Name
  {8f4ef37d-19c4-4c8a-ac9c-5d52548ba098}, !- Layer 1
  {f7bcc041-7c62-411d-9289-36039ba91f58}, !- Layer 2
  {5dd92c4c-fe74-4773-ba2f-63bff3052c1a}, !- Layer 3
  {862bc591-105d-4ae3-bb39-88cc0d99fcf5}; !- Layer 4

OS:StandardsInformation:Construction,
  {59987ab0-22ee-4963-8130-bfe15d2c714e}, !- Handle
  {6273622a-c2ae-4d98-aa3b-524181d449cc}, !- Construction Name
  ExteriorWall,                           !- Intended Surface Type
  Mass;                                   !- Standards Construction Type

OS:Construction,
  {30236f44-be81-4d4e-8b8e-925dd35f4e89}, !- Handle
  ASHRAE 189.1-2009 ExtWall Mass ClimateZone alt-res 5, !- Name
  ,                                       !- Surface Rendering Name
  {8f4ef37d-19c4-4c8a-ac9c-5d52548ba098}, !- Layer 1
  {f7bcc041-7c62-411d-9289-36039ba91f58}, !- Layer 2
  {52bad62e-e9c5-41ea-981f-19e11e245b3c}, !- Layer 3
  {862bc591-105d-4ae3-bb39-88cc0d99fcf5}; !- Layer 4

OS:StandardsInformation:Construction,
  {9f9652fc-9960-433e-90d0-8369a86ccdd0}, !- Handle
  {30236f44-be81-4d4e-8b8e-925dd35f4e89}, !- Construction Name
  ExteriorWall,                           !- Intended Surface Type
  Mass;                                   !- Standards Construction Type

OS:Construction,
  {c477a6b0-a87a-4cee-9796-2d1068a6b444}, !- Handle
  ASHRAE 189.1-2009 ExtWall Mass ClimateZone alt-res 6, !- Name
  ,                                       !- Surface Rendering Name
  {8f4ef37d-19c4-4c8a-ac9c-5d52548ba098}, !- Layer 1
  {f7bcc041-7c62-411d-9289-36039ba91f58}, !- Layer 2
  {6e6ca284-1298-4e46-9226-fe5fdea40ec6}, !- Layer 3
  {862bc591-105d-4ae3-bb39-88cc0d99fcf5}; !- Layer 4

OS:StandardsInformation:Construction,
  {b1871c2b-8636-4acc-8e77-4e0cf072900e}, !- Handle
  {c477a6b0-a87a-4cee-9796-2d1068a6b444}, !- Construction Name
  ExteriorWall,                           !- Intended Surface Type
  Mass;                                   !- Standards Construction Type

OS:Construction,
  {d9658e18-8389-4cec-8f74-3f61c4a3f7d5}, !- Handle
  ASHRAE 189.1-2009 ExtWall Mass ClimateZone alt-res 7, !- Name
  ,                                       !- Surface Rendering Name
  {8f4ef37d-19c4-4c8a-ac9c-5d52548ba098}, !- Layer 1
  {f7bcc041-7c62-411d-9289-36039ba91f58}, !- Layer 2
  {6e6ca284-1298-4e46-9226-fe5fdea40ec6}, !- Layer 3
  {862bc591-105d-4ae3-bb39-88cc0d99fcf5}; !- Layer 4

OS:StandardsInformation:Construction,
  {47549471-9769-41a0-9476-03170f1a2aa6}, !- Handle
  {d9658e18-8389-4cec-8f74-3f61c4a3f7d5}, !- Construction Name
  ExteriorWall,                           !- Intended Surface Type