
OS:Version,
  {e8894520-bd9d-420d-91a3-1524ccd7666e}, !- Handle
  1.2.3;                                  !- Version Identifier

OS:Construction,
  {404c151d-8c10-43d2-84c7-f3d5876b992f}, !- Handle
  ASHRAE 189.1-2009 AtticFloor ClimateZone 1-8, !- Name
  ,                                       !- Surface Rendering Name
  {02dc0d46-660f-4aa0-9f4b-e83f06fb0d3d}, !- Layer 1
  {ad8ee5e0-9740-4ba7-b493-1fdbc1668bf6}, !- Layer 2
  {02dc0d46-660f-4aa0-9f4b-e83f06fb0d3d}; !- Layer 3

OS:StandardsInformation:Construction,
  {85faa360-f9c2-4ea5-993e-e4fc274cf406}, !- Handle
  {404c151d-8c10-43d2-84c7-f3d5876b992f}, !- Construction Name
  AtticFloor,                             !- Intended Surface Type
  WoodFramed;                             !- Standards Construction Type

OS:Material,
  {02dc0d46-660f-4aa0-9f4b-e83f06fb0d3d}, !- Handle
  1/2IN Gypsum,                           !- Name
  Smooth,                                 !- Roughness
  0.0127,                                 !- Thickness {m}
  0.16,                                   !- Conductivity {W/m-K}
  784.9,                                  !- Density {kg/m3}
  830.000000000001,                       !- Specific Heat {J/kg-K}
  0.9,                                    !- Thermal Absorptance
  0.92,                                   !- Solar Absorptance
  0.92;                                   !- Visible Absorptance

OS:Material,
  {ad8ee5e0-9740-4ba7-b493-1fdbc1668bf6}, !- Handle
  AtticFloor Insulation,                  !- Name
  MediumRough,                            !- Roughness
  0.2379,                                 !- Thickness {m}
  0.049,                                  !- Conductivity {W/m-K}
  265,                                    !- Density {kg/m3}
  836.800000000001,                       !- Specific Heat {J/kg-K}
  0.9,                                    !- Thermal Absorptance
  0.7,                                    !- Solar Absorptance
  0.7;                                    !- Visible Absorptance

OS:Construction,
  {e24fcf38-0d7a-4c3d-91b5-0117ed8ec1de}, !- Handle
  ASHRAE 189.1-2009 ExtRoof IEAD ClimateZone 1, !- Name
  ,                                       !- Surface Rendering Name
  {66b68ec3-4e76-4266-9eac-8fc67edbe8d7}, !- Layer 1
  {4965149b-a241-4247-854b-562b3945c48d}, !- Layer 2
  {a9867bd2-2e47-47a0-928d-f39c3a0d7f16}; !- Layer 3

OS:StandardsInformation:Construction,
  {cd6208da-6d79-4e07-9d24-afe70abf3148}, !- Handle
  {e24fcf38-0d7a-4c3d-91b5-0117ed8ec1de}, !- Construction Name
  ExteriorRoof,                           !- Intended Surface Type
  IEAD;                                   !- Standards Construction Type

OS:Material,
  {66b68ec3-4e76-4266-9eac-8fc67edbe8d7}, !- Handle
  Roof Membrane,                          !- Name
  VeryRough,                              !- Roughness
  0.0095,                                 !- Thickness {m}
  0.16,                                   !- Conductivity {W/m-K}
  1121.29,                                !- Density {kg/m3}
  1460,                                   !- Specific Heat {J/kg-K}
  0.9,                                    !- Thermal Absorptance
  0.7,                                    !- Solar Absorptance
  0.7;                                    !- Visible Absorptance

OS:Material,
  {4965149b-a241-4247-854b-562b3945c48d}, !- Handle
  Roof Insulation [18],                   !- Name
  MediumRough,                            !- Roughness
  0.1693,                                 !- Thickness {m}
  0.049,                                  !- Conductivity {W/m-K}
  265,                                    !- Density {kg/m3}
  836.800000000001,                       !- Specific Heat {J/kg-K}
  0.9,                                    !- Thermal Absorptance
  0.7,                                    !- Solar Absorptance
  0.7;                                    !- Visible Absorptance

OS:Material,
  {a9867bd2-2e47-47a0-928d-f39c3a0d7f16}, !- Handle
  Metal Decking,                          !- Name
  MediumSmooth,                           !- Roughness
  0.0015,                                 !- Thickness {m}
  45.006,                                 !- Conductivity {W/m-K}
  7680,                                   !- Density {kg/m3}
  418.4,                                  !- Specific Heat {J/kg-K}
  0.9,                                    !- Thermal Absorptance
  0.7,                                    !- Solar Absorptance
  0.3;                                    !- Visible Absorptance

OS:Construction,
  {a9031885-9e83-4a04-a677-cc4074f05c27}, !- Handle
  ASHRAE 189.1-2009 ExtRoof IEAD ClimateZone 2-5, !- Name
  ,                                       !- Surface Rendering Name
  {66b68ec3-4e76-4266-9eac-8fc67edbe8d7}, !- Layer 1
  {ad735acf-c8d9-49fe-901d-44e48e9d0910}, !- Layer 2
  {a9867bd2-2e47-47a0-928d-f39c3a0d7f16}; !- Layer 3

OS:StandardsInformation:Construction,
  {cd1948d6-2e62-4dc2-b578-fe623247ca7e}, !- Handle
  {a9031885-9e83-4a04-a677-cc4074f05c27}, !- Construction Name
  ExteriorRoof,                           !- Intended Surface Type
  IEAD;                                   !- Standards Construction Type

OS:Material,
  {ad735acf-c8d9-49fe-901d-44e48e9d0910}, !- Handle
  Roof Insulation [21],                   !- Name
  MediumRough,                            !- Roughness
  0.2105,                                 !- Thickness {m}
  0.049,                                  !- Conductivity {W/m-K}
  265,                                    !- Density {kg/m3}
  836.800000000001,                       !- Specific Heat {J/kg-K}
  0.9,                                    !- Thermal Absorptance
  0.7,                                    !- Solar Absorptance
  0.7;                                    !- Visible Absorptance

OS:Construction,
  {77c2e785-d067-4e68-9182-07e3dcc76a78}, !- Handle
  ASHRAE 189.1-2009 ExtRoof IEAD ClimateZone 6, !- Name
  ,                                       !- Surface Rendering Name
  {66b68ec3-4e76-4266-9eac-8fc67edbe8d7}, !- Layer 1
  {6421c49c-28a4-4b7f-90cb-295ec49098e1}, !- Layer 2
  {a9867bd2-2e47-47a0-928d-f39c3a0d7f16}; !- Layer 3

OS:StandardsInformation:Construction,
  {5641ed72-9f8e-4cd2-be3a-b04cb40b2129}, !- Handle
  {77c2e785-d067-4e68-9182-07e3dcc76a78}, !- Construction Name
  ExteriorRoof,                           !- Intended Surface Type
  IEAD;                                   !- Standards Construction Type

OS:Material,
  {6421c49c-28a4-4b7f-90cb-295ec49098e1}, !- Handle
  Roof Insulation [24],                   !- Name
  MediumRough,                            !- Roughness
  0.260100000000001,                      !- Thickness {m}
  0.049,                                  !- Conductivity {W/m-K}
  265,                                    !- Density {kg/m3}
  836.800000000001,                       !- Specific Heat {J/kg-K}
  0.9,                                    !- Thermal Absorptance
  0.7,                                    !- Solar Absorptance
  0.7;                                    !- Visible Absorptance

OS:Construction,
  {5426503e-9bb9-4e77-8c27-1074662ee5e3}, !- Handle
  ASHRAE 189.1-2009 ExtRoof IEAD ClimateZone 7-8, !- Name
  ,                                       !- Surface Rendering Name
  {66b68ec3-4e76-4266-9eac-8fc67edbe8d7}, !- Layer 1
  {ea4d6cf3-fd39-4253-94ad-4098cacbba21}, !- Layer 2
  {a9867bd2-2e47-47a0-928d-f39c3a0d7f16}; !- Layer 3

OS:StandardsInformation:Construction,
  {eb75f30e-edb2-4ada-9ab7-e12904deffb6}, !- Handle
  {5426503e-9bb9-4e77-8c27-1074662ee5e3}, !- Construction Name
  ExteriorRoof,                           !- Intended Surface Type
  IEAD;                                   !- Standards Construction Type

OS:Material,
  {ea4d6cf3-fd39-4253-94ad-4098cacbba21}, !- Handle
  Roof Insulation [26],                   !- Name
  MediumRough,                            !- Roughness
  0.2941,                                 !- Thickness {m}
  0.049,                                  !- Conductivity {W/m-K}
  265,                                    !- Density {kg/m3}
  836.800000000001,                       !- Specific Heat {J/kg-K}
  0.9,                                    !- Thermal Absorptance
  0.7,                                    !- Solar Absorptance
  0.7;                                    !- Visible Absorptance

OS:Construction,
  {fbcaeb28-15d8-48a8-9253-e5d74a9a1d67}, !- Handle
  ASHRAE 189.1-2009 ExtRoof Metal ClimateZone 1, !- Name
  ,                                       !- Surface Rendering Name
  {804a4697-e981-4a31-9438-c8dcd7871939}, !- Layer 1
  {e5c77339-32e7-438b-ad49-0fec424aec24}; !- Layer 2

OS:StandardsInformation:Construction,
  {99be49f0-ee63-48ee-a9bf-a9210ec8cf96}, !- Handle
  {fbcaeb28-15d8-48a8-9253-e5d74a9a1d67}, !- Construction Name
  ExteriorRoof,                           !- Intended Surface Type
  Metal;                                  !- Standards Construction Type

OS:Material,
  {804a4697-e981-4a31-9438-c8dcd7871939}, !- Handle
  Metal Roofing,                          !- Name
  MediumSmooth,                           !- Roughness
  0.0015,                                 !- Thickness {m}
  45.006,                                 !- Conductivity {W/m-K}
  7680,                                   !- Density {kg/m3}
  418.4,                                  !- Specific Heat {J/kg-K}
  0.9,                                    !- Thermal Absorptance
  0.3,                                    !- Solar Absorptance
  0.3;                                    !- Visible Absorptance

OS:Material,
  {e5c77339-32e7-438b-ad49-0fec424aec24}, !- Handle
  Roof Insulation [19],                   !- Name
  MediumRough,                            !- Roughness
  0.1868,                                 !- Thickness {m}
  0.049,                                  !- Conductivity {W/m-K}
  265,                                    !- Density {kg/m3}
  836.800000000001,                       !- Specific Heat {J/kg-K}
  0.9,                                    !- Thermal Absorptance
  0.7,                                    !- Solar Absorptance
  0.7;                                    !- Visible Absorptance

OS:Construction,
  {bdf722b2-5f96-4fc9-8157-998a33fded05}, !- Handle
  ASHRAE 189.1-2009 ExtRoof Metal ClimateZone 2-5, !- Name
  ,                                       !- Surface Rendering Name
  {804a4697-e981-4a31-9438-c8dcd7871939}, !- Layer 1
  {4569dc3e-ccee-41cc-a2fb-232fd7d93d7b}; !- Layer 2

OS:StandardsInformation:Construction,
  {c58b1af0-4505-4788-8a55-e0e5d550c8a3}, !- Handle
  {bdf722b2-5f96-4fc9-8157-998a33fded05}, !- Construction Name
  ExteriorRoof,                           !- Intended Surface Type
  Metal;                                  !- Standards Construction Type

OS:Material,
  {4569dc3e-ccee-41cc-a2fb-232fd7d93d7b}, !- Handle
  Roof Insulation [22],                   !- Name
  MediumRough,                            !- Roughness
  0.2358,                                 !- Thickness {m}
  0.049,                                  !- Conductivity {W/m-K}
  265,                                    !- Density {kg/m3}
  836.800000000001,                       !- Specific Heat {J/kg-K}
  0.9,                                    !- Thermal Absorptance
  0.7,                                    !- Solar Absorptance
  0.7;                                    !- Visible Absorptance

OS:Construction,
  {82474a8c-8623-43df-9131-c2cf3685e8da}, !- Handle
  ASHRAE 189.1-2009 ExtRoof Metal ClimateZone 6, !- Name
  ,                                       !- Surface Rendering Name
  {804a4697-e981-4a31-9438-c8dcd7871939}, !- Layer 1
  {c5b9fc8d-e04a-41c2-acce-81bad6961b7a}; !- Layer 2

OS:StandardsInformation:Construction,
  {1c53a4f1-e0d7-4245-bdff-6dd99dec119e}, !- Handle
  {82474a8c-8623-43df-9131-c2cf3685e8da}, !- Construction Name
  ExteriorRoof,                           !- Intended Surface Type
  Metal;                                  !- Standards Construction Type

OS:Material,
  {c5b9fc8d-e04a-41c2-acce-81bad6961b7a}, !- Handle
  Roof Insulation [25],                   !- Name
  MediumRough,                            !- Roughness
  0.263,                                  !- Thickness {m}
  0.049,                                  !- Conductivity {W/m-K}
  265,                                    !- Density {kg/m3}
  836.800000000001,                       !- Specific Heat {J/kg-K}
  0.9,                                    !- Thermal Absorptance
  0.7,                                    !- Solar Absorptance
  0.7;                                    !- Visible Absorptance

OS:Construction,
  {7333a31d-aa1e-4294-8367-c764d3e187ce}, !- Handle
  ASHRAE 189.1-2009 ExtRoof Metal ClimateZone 7-8, !- Name
  ,                                       !- Surface Rendering Name
  {804a4697-e981-4a31-9438-c8dcd7871939}, !- Layer 1
  {95ca93a9-cb19-4eaa-9ada-6221c7cd2ed7}; !- Layer 2

OS:StandardsInformation:Construction,
  {f53615ce-8a4d-4887-aad1-9f4cc8cc846d}, !- Handle
  {7333a31d-aa1e-4294-8367-c764d3e187ce}, !- Construction Name
  ExteriorRoof,                           !- Intended Surface Type
  Metal;                                  !- Standards Construction Type

OS:Material,
  {95ca93a9-cb19-4eaa-9ada-6221c7cd2ed7}, !- Handle
  Roof Insulation [27],                   !- Name
  MediumRough,                            !- Roughness
  0.297000000000001,                      !- Thickness {m}
  0.049,                                  !- Conductivity {W/m-K}
  265,                                    !- Density {kg/m3}
  836.800000000001,                       !- Specific Heat {J/kg-K}
  0.9,                                    !- Thermal Absorptance
  0.7,                                    !- Solar Absorptance
  0.7;                                    !- Visible Absorptance

OS:Construction,
  {a9ca33d2-2e93-456f-9b24-f7daf7630678}, !- Handle
  ASHRAE 189.1-2009 ExtWall Mass ClimateZone 1, !- Name
  ,                                       !- Surface Rendering Name
  {fd997617-5ee2-4f06-8436-e64d6810d130}, !- Layer 1
  {4cea6b57-c15e-4c1d-9090-1283d5fa8757}, !- Layer 2
  {5ab176e3-2f76-4bf2-8f28-a1675d114715}, !- Layer 3
  {02dc0d46-660f-4aa0-9f4b-e83f06fb0d3d}; !- Layer 4

OS:StandardsInformation:Construction,
  {286c9937-95c2-45a2-9485-28a25aea4d4a}, !- Handle
  {a9ca33d2-2e93-456f-9b24-f7daf7630678}, !- Construction Name
  ExteriorWall,                           !- Intended Surface Type
  Mass;                                   !- Standards Construction Type

OS:Material,
  {fd997617-5ee2-4f06-8436-e64d6810d130}, !- Handle
  1IN Stucco,                             !- Name
  Smooth,                                 !- Roughness
  0.0253,                                 !- Thickness {m}
  0.691799999999999,                      !- Conductivity {W/m-K}
  1858,                                   !- Density {kg/m3}
  836.999999999999,                       !- Specific Heat {J/kg-K}
  0.9,                                    !- Thermal Absorptance
  0.92,                                   !- Solar Absorptance
  0.92;                                   !- Visible Absorptance

OS:Material,
  {4cea6b57-c15e-4c1d-9090-1283d5fa8757}, !- Handle
  8IN Concrete HW,                        !- Name
  MediumRough,                            !- Roughness
  0.2033,                                 !- Thickness {m}
  1.72959999999999,                       !- Conductivity {W/m-K}
  2242.99999999999,                       !- Density {kg/m3}
  836.999999999999,                       !- Specific Heat {J/kg-K}
  0.9,                                    !- Thermal Absorptance
  0.65,                                   !- Solar Absorptance
  0.65;                                   !- Visible Absorptance

OS:Material,
  {5ab176e3-2f76-4bf2-8f28-a1675d114715}, !- Handle
  Wall Insulation [31],                   !- Name
  MediumRough,                            !- Roughness
  0.0337000000000001,                     !- Thickness {m}
  0.0432,                                 !- Conductivity {W/m-K}
  91,                                     !- Density {kg/m3}
  836.999999999999,                       !- Specific Heat {J/kg-K}
  0.9,                                    !- Thermal Absorptance
  0.5,                                    !- Solar Absorptance
  0.5;                                    !- Visible Absorptance

OS:Construction,
  {3ef10cae-c7a0-4eb7-b3ae-24c3554c8251}, !- Handle
  ASHRAE 189.1-2009 ExtWall Mass ClimateZone 2, !- Name
  ,                                       !- Surface Rendering Name
  {fd997617-5ee2-4f06-8436-e64d6810d130}, !- Layer 1
  {4cea6b57-c15e-4c1d-9090-1283d5fa8757}, !- Layer 2
  {3151e34a-d9e8-4e7b-93b8-740a0e2adea1}, !- Layer 3
  {02dc0d46-660f-4aa0-9f4b-e83f06fb0d3d}; !- Layer 4

OS:StandardsInformation:Construction,
  {e75fedbd-1ca4-4bd4-bd62-625bc4f6b097}, !- Handle
  {3ef10cae-c7a0-4eb7-b3ae-24c3554c8251}, !- Construction Name
  ExteriorWall,                           !- Intended Surface Type
  Mass;                                   !- Standards Construction Type

OS:Material,
  {3151e34a-d9e8-4e7b-93b8-740a0e2adea1}, !- Handle
  Wall Insulation [35],                   !- Name
  MediumRough,                            !- Roughness
  0.0452,                                 !- Thickness {m}
  0.0432,                                 !- Conductivity {W/m-K}
  91,                                     !- Density {kg/m3}
  836.999999999999,                       !- Specific Heat {J/kg-K}
  0.9,                                    !- Thermal Absorptance
  0.5,                                    !- Solar Absorptance
  0.5;                                    !- Visible Absorptance

OS:Construction,
  {c73efc90-6c21-49a5-9a4b-801498eba99a}, !- Handle
  ASHRAE 189.1-2009 ExtWall Mass ClimateZone 3, !- Name
  ,                                       !- Surface Rendering Name
  {fd997617-5ee2-4f06-8436-e64d6810d130}, !- Layer 1
  {4cea6b57-c15e-4c1d-9090-1283d5fa8757}, !- Layer 2
  {761415fd-ccae-4dd6-9df2-31785bbf4c4b}, !- Layer 3
  {02dc0d46-660f-4aa0-9f4b-e83f06fb0d3d}; !- Layer 4

OS:StandardsInformation:Construction,
  {4b35ada1-4c02-4c91-a24d-bbb70acfc2d8}, !- Handle
  {c73efc90-6c21-49a5-9a4b-801498eba99a}, !- Construction Name
  ExteriorWall,                           !- Intended Surface Type
  Mass;                                   !- Standards Construction Type

OS:Material,
  {761415fd-ccae-4dd6-9df2-31785bbf4c4b}, !- Handle
  Wall Insulation [36],                   !- Name
  MediumRough,                            !- Roughness
  0.0565999999999999,                     !- Thickness {m}
  0.0432,                                 !- Conductivity {W/m-K}
  91,                                     !- Density {kg/m3}
  836.999999999999,                       !- Specific Heat {J/kg-K}
  0.9,                                    !- Thermal Absorptance
  0.5,                                    !- Solar Absorptance
  0.5;                                    !- Visible Absorptance

OS:Construction,
  {85b0ced3-93b6-451a-9a6d-4af709f6c193}, !- Handle
  ASHRAE 189.1-2009 ExtWall Mass ClimateZone 4, !- Name
  ,                                       !- Surface Rendering Name
  {fd997617-5ee2-4f06-8436-e64d6810d130}, !- Layer 1
  {4cea6b57-c15e-4c1d-9090-1283d5fa8757}, !- Layer 2
  {1bf16f0a-f4f0-4676-9edc-32fa877f8c4a}, !- Layer 3
  {02dc0d46-660f-4aa0-9f4b-e83f06fb0d3d}; !- Layer 4

OS:StandardsInformation:Construction,
  {8e92e35e-ffc1-4014-a6bd-90b2893fc06c}, !- Handle
  {85b0ced3-93b6-451a-9a6d-4af709f6c193}, !- Construction Name
  ExteriorWall,                           !- Intended Surface Type
  Mass;                                   !- Standards Construction Type

OS:Material,
  {1bf16f0a-f4f0-4676-9edc-32fa877f8c4a}, !- Handle
  Wall Insulation [37],                   !- Name
  MediumRough,                            !- Roughness
  0.0680999999999999,                     !- Thickness {m}
  0.0432,                                 !- Conductivity {W/m-K}
  91,                                     !- Density {kg/m3}
  836.999999999999,                       !- Specific Heat {J/kg-K}
  0.9,                                    !- Thermal Absorptance
  0.5,                                    !- Solar Absorptance
  0.5;                                    !- Visible Absorptance

OS:Construction,
  {0e98821f-f109-424c-95b9-235cb14c5b89}, !- Handle
  ASHRAE 189.1-2009 ExtWall Mass ClimateZone 5, !- Name
  ,                                       !- Surface Rendering Name
  {fd997617-5ee2-4f06-8436-e64d6810d130}, !- Layer 1
  {4cea6b57-c15e-4c1d-9090-1283d5fa8757}, !- Layer 2
  {850a4400-48ce-4975-b241-12ea30cd18e1}, !- Layer 3
  {02dc0d46-660f-4aa0-9f4b-e83f06fb0d3d}; !- Layer 4

OS:StandardsInformation:Construction,
  {28de1d63-c6f2-46c8-bc14-cc3ef57f1e74}, !- Handle
  {0e98821f-f109-424c-95b9-235cb14c5b89}, !- Construction Name
  ExteriorWall,                           !- Intended Surface Type
  Mass;                                   !- Standards Construction Type

OS:Material,
  {850a4400-48ce-4975-b241-12ea30cd18e1}, !- Handle
  Wall Insulation [40],                   !- Name
  MediumRough,                            !- Roughness
  0.0793999999999999,                     !- Thickness {m}
  0.0432,                                 !- Conductivity {W/m-K}
  91,                                     !- Density {kg/m3}
  836.999999999999,                       !- Specific Heat {J/kg-K}
  0.9,                                    !- Thermal Absorptance
  0.5,                                    !- Solar Absorptance
  0.5;                                    !- Visible Absorptance

OS:Construction,
  {9b5dd816-f5be-4117-8b2c-9eeb30ced67d}, !- Handle
  ASHRAE 189.1-2009 ExtWall Mass ClimateZone 6, !- Name
  ,                                       !- Surface Rendering Name
  {fd997617-5ee2-4f06-8436-e64d6810d130}, !- Layer 1
  {4cea6b57-c15e-4c1d-9090-1283d5fa8757}, !- Layer 2
  {3f1caf6a-8791-4f25-9a39-6c0ab6382ddd}, !- Layer 3
  {02dc0d46-660f-4aa0-9f4b-e83f06fb0d3d}; !- Layer 4

OS:StandardsInformation:Construction,
  {e2954b57-162f-4182-9bbc-ff6be38d1ccf}, !- Handle
  {9b5dd816-f5be-4117-8b2c-9eeb30ced67d}, !- Construction Name
  ExteriorWall,                           !- Intended Surface Type
  Mass;                                   !- Standards Construction Type

OS:Material,
  {3f1caf6a-8791-4f25-9a39-6c0ab6382ddd}, !- Handle
  Wall Insulation [42],                   !- Name
  MediumRough,                            !- Roughness
  0.0913999999999999,                     !- Thickness {m}
  0.0432,                                 !- Conductivity {W/m-K}
  91,                                     !- Density {kg/m3}
  836.999999999999,                       !- Specific Heat {J/kg-K}
  0.9,                                    !- Thermal Absorptance
  0.5,                                    !- Solar Absorptance
  0.5;                                    !- Visible Absorptance

OS:Construction,
  {f4981948-b8c7-4571-816c-1d7bdbb35cdc}, !- Handle
  ASHRAE 189.1-2009 ExtWall Mass ClimateZone 7-8, !- Name
  ,                                       !- Surface Rendering Name
  {fd997617-5ee2-4f06-8436-e64d6810d130}, !- Layer 1
  {4cea6b57-c15e-4c1d-9090-1283d5fa8757}, !- Layer 2
  {54e7b2d1-2d87-4469-ac51-51659347a9bb}, !- Layer 3
  {02dc0d46-660f-4aa0-9f4b-e83f06fb0d3d}; !- Layer 4

OS:StandardsInformation:Construction,
  {75278c22-b0ae-4c8c-b59a-56365881998b}, !- Handle
  {f4981948-b8c7-4571-816c-1d7bdbb35cdc}, !- Construction Name
  ExteriorWall,                           !- Intended Surface Type
  Mass;                                   !- Standards Construction Type

OS:Material,
  {54e7b2d1-2d87-4469-ac51-51659347a9bb}, !- Handle
  Wall Insulation [44],                   !- Name
  MediumRough,                            !- Roughness
  0.1104,                                 !- Thickness {m}
  0.0432,                                 !- Conductivity {W/m-K}
  91,                                     !- Density {kg/m3}
  836.999999999999,                       !- Specific Heat {J/kg-K}
  0.9,                                    !- Thermal Absorptance
  0.5,                                    !- Solar Absorptance
  0.5;                                    !- Visible Absorptance

OS:Construction,
  {43ec0de6-09a6-41c8-b479-7dac41599109}, !- Handle
  ASHRAE 189.1-2009 ExtWall Mass ClimateZone alt-res 1, !- Name
  ,                                       !- Surface Rendering Name
  {fd997617-5ee2-4f06-8436-e64d6810d130}, !- Layer 1
  {4cea6b57-c15e-4c1d-9090-1283d5fa8757}, !- Layer 2
  {3151e34a-d9e8-4e7b-93b8-740a0e2adea1}, !- Layer 3
  {02dc0d46-660f-4aa0-9f4b-e83f06fb0d3d}; !- Layer 4

OS:StandardsInformation:Construction,
  {f86e8af7-e0c6-418b-b9ff-b6954705f202}, !- Handle
  {43ec0de6-09a6-41c8-b479-7dac41599109}, !- Construction Name
  ExteriorWall,                           !- Intended Surface Type
  Mass;                                   !- Standards Construction Type

OS:Construction,
  {8f7a7eb2-3b08-4ac8-a2fe-9ed800e9dab8}, !- Handle
  ASHRAE 189.1-2009 ExtWall Mass ClimateZone alt-res 2, !- Name
  ,                                       !- Surface Rendering Name
  {fd997617-5ee2-4f06-8436-e64d6810d130}, !- Layer 1
  {4cea6b57-c15e-4c1d-9090-1283d5fa8757}, !- Layer 2
  {761415fd-ccae-4dd6-9df2-31785bbf4c4b}, !- Layer 3
  {02dc0d46-660f-4aa0-9f4b-e83f06fb0d3d}; !- Layer 4

OS:StandardsInformation:Construction,
  {0bddabed-1614-4a5d-a3e8-1c56d926394e}, !- Handle
  {8f7a7eb2-3b08-4ac8-a2fe-9ed800e9dab8}, !- Construction Name
  ExteriorWall,                           !- Intended Surface Type
  Mass;                                   !- Standards Construction Type

OS:Construction,
  {bae4aac3-c68f-4b81-ad3b-5546e24829df}, !- Handle
  ASHRAE 189.1-2009 ExtWall Mass ClimateZone alt-res 3, !- Name
  ,                                       !- Surface Rendering Name
  {fd997617-5ee2-4f06-8436-e64d6810d130}, !- Layer 1
  {4cea6b57-c15e-4c1d-9090-1283d5fa8757}, !- Layer 2
  {1bf16f0a-f4f0-4676-9edc-32fa877f8c4a}, !- Layer 3
  {02dc0d46-660f-4aa0-9f4b-e83f06fb0d3d}; !- Layer 4

OS:StandardsInformation:Construction,
  {27e16b50-055f-4f26-8a0d-36df4e8dff09}, !- Handle
  {bae4aac3-c68f-4b81-ad3b-5546e24829df}, !- Construction Name
  ExteriorWall,                           !- Intended Surface Type
  Mass;                                   !- Standards Construction Type

OS:Construction,
  {0c878a9c-b4a6-4954-814b-ce4fac62c3b8}, !- Handle
  ASHRAE 189.1-2009 ExtWall Mass ClimateZone alt-res 4, !- Name
  ,                                       !- Surface Rendering Name
  {fd997617-5ee2-4f06-8436-e64d6810d130}, !- Layer 1
  {4cea6b57-c15e-4c1d-9090-1283d5fa8757}, !- Layer 2
  {850a4400-48ce-4975-b241-12ea30cd18e1}, !- Layer 3
  {02dc0d46-660f-4aa0-9f4b-e83f06fb0d3d}; !- Layer 4

OS:StandardsInformation:Construction,
  {dcb15163-eaff-403e-8338-d5005acc8637}, !- Handle
  {0c878a9c-b4a6-4954-814b-ce4fac62c3b8}, !- Construction Name
  ExteriorWall,                           !- Intended Surface Type
  Mass;                                   !- Standards Construction Type

OS:Construction,
  {3bf60a79-aca0-4feb-9b0b-b55f5370c65d}, !- Handle
  ASHRAE 189.1-2009 ExtWall Mass ClimateZone alt-res 5, !- Name
  ,                                       !- Surface Rendering Name
  {fd997617-5ee2-4f06-8436-e64d6810d130}, !- Layer 1
  {4cea6b57-c15e-4c1d-9090-1283d5fa8757}, !- Layer 2
  {3f1caf6a-8791-4f25-9a39-6c0ab6382ddd}, !- Layer 3
  {02dc0d46-660f-4aa0-9f4b-e83f06fb0d3d}; !- Layer 4

OS:StandardsInformation:Construction,
  {126d47ad-0d92-4497-a0de-4ccd326f708a}, !- Handle
  {3bf60a79-aca0-4feb-9b0b-b55f5370c65d}, !- Construction Name
  ExteriorWall,                           !- Intended Surface Type
  Mass;                                   !- Standards Construction Type

OS:Construction,
  {ab9c3c95-3300-45aa-94c4-54e1c56548fe}, !- Handle
  ASHRAE 189.1-2009 ExtWall Mass ClimateZone alt-res 6, !- Name
  ,                                       !- Surface Rendering Name
  {fd997617-5ee2-4f06-8436-e64d6810d130}, !- Layer 1
  {4cea6b57-c15e-4c1d-9090-1283d5fa8757}, !- Layer 2
  {54e7b2d1-2d87-4469-ac51-51659347a9bb}, !- Layer 3
  {02dc0d46-660f-4aa0-9f4b-e83f06fb0d3d}; !- Layer 4

OS:StandardsInformation:Construction,
  {c1ca32ba-0b68-4158-baaa-545c980a1d78}, !- Handle
  {ab9c3c95-3300-45aa-94c4-54e1c56548fe}, !- Construction Name
  ExteriorWall,                           !- Intended Surface Type
  Mass;                                   !- Standards Construction Type

OS:Construction,
  {f0888d3e-871c-457d-8118-626b85c71777}, !- Handle
  ASHRAE 189.1-2009 ExtWall Mass ClimateZone alt-res 7, !- Name
  ,                                       !- Surface Rendering Name
  {fd997617-5ee2-4f06-8436-e64d6810d130}, !- Layer 1
  {4cea6b57-c15e-4c1d-9090-1283d5fa8757}, !- Layer 2
  {54e7b2d1-2d87-4469-ac51-51659347a9bb}, !- Layer 3
  {02dc0d46-660f-4aa0-9f4b-e83f06fb0d3d}; !- Layer 4

OS:StandardsInformation:Construction,
  {68dd3405-6749-41ea-986a-d5f49c4e2b08}, !- Handle
  {f0888d3e-871c-457d-8118-626b85c71777}, !- Construction Name
  ExteriorWall,                           !- Intended Surface Type
  Mass;                                   !- Standards Construction Type

OS:Construction,
  {4032967f-c8a3-45d9-b9f7-bd03a3821794}, !- Handle
  ASHRAE 189.1-2009 ExtWall Mass ClimateZone alt-res 8, !- Name