
OS:Version,
  {1f2ed6f3-d767-4237-a5f7-a942d16f5ab7}, !- Handle
  1.2.3;                                  !- Version Identifier

OS:Construction,
  {bffeff05-636c-4377-9428-85a5656095ee}, !- Handle
  ASHRAE 189.1-2009 AtticFloor ClimateZone 1-8, !- Name
  ,                                       !- Surface Rendering Name
  {093d9e75-254a-4434-bb87-2e30acf9a26f}, !- Layer 1
  {2a9bcde0-5325-4f18-aa2b-cb2593e076f7}, !- Layer 2
  {093d9e75-254a-4434-bb87-2e30acf9a26f}; !- Layer 3

OS:StandardsInformation:Construction,
  {b6602646-c9ac-453f-8f5c-1b336ff406f3}, !- Handle
  {bffeff05-636c-4377-9428-85a5656095ee}, !- Construction Name
  AtticFloor,                             !- Intended Surface Type
  WoodFramed;                             !- Standards Construction Type

OS:Material,
  {093d9e75-254a-4434-bb87-2e30acf9a26f}, !- Handle
  1/2IN Gypsum,                           !- Name
  Smooth,                                 !- Roughness
  0.0127,                                 !- Thickness {m}
  0.16,                                   !- Conductivity {W/m-K}
  784.9,                                  !- Density {kg/m3}
  830.000000000001,                       !- Specific Heat {J/kg-K}
  0.9,                                    !- Thermal Absorptance
  0.92,                                   !- Solar Absorptance
  0.92;                                   !- Visible Absorptance

OS:Material,
  {2a9bcde0-5325-4f18-aa2b-cb2593e076f7}, !- Handle
  AtticFloor Insulation,                  !- Name
  MediumRough,                            !- Roughness
  0.2379,                                 !- Thickness {m}
  0.049,                                  !- Conductivity {W/m-K}
  265,                                    !- Density {kg/m3}
  836.800000000001,                       !- Specific Heat {J/kg-K}
  0.9,                                    !- Thermal Absorptance
  0.7,                                    !- Solar Absorptance
  0.7;                                    !- Visible Absorptance

OS:Construction,
  {cfb28367-2847-49bd-aa50-ba2f3cd7aafd}, !- Handle
  ASHRAE 189.1-2009 ExtRoof IEAD ClimateZone 1, !- Name
  ,                                       !- Surface Rendering Name
  {12c3a997-91c2-42d5-847b-72320eb457fe}, !- Layer 1
  {1b5c0f17-5928-4678-b2c6-764d45212bd7}, !- Layer 2
  {09ac0a5c-225a-46d2-ac98-0062c6761349}; !- Layer 3

OS:StandardsInformation:Construction,
  {8b728f80-bd2c-4ce6-a790-23dbd58d27ed}, !- Handle
  {cfb28367-2847-49bd-aa50-ba2f3cd7aafd}, !- Construction Name
  ExteriorRoof,                           !- Intended Surface Type
  IEAD;                                   !- Standards Construction Type

OS:Material,
  {12c3a997-91c2-42d5-847b-72320eb457fe}, !- Handle
  Roof Membrane,                          !- Name
  VeryRough,                              !- Roughness
  0.0095,                                 !- Thickness {m}
  0.16,                                   !- Conductivity {W/m-K}
  1121.29,                                !- Density {kg/m3}
  1460,                                   !- Specific Heat {J/kg-K}
  0.9,                                    !- Thermal Absorptance
  0.7,                                    !- Solar Absorptance
  0.7;                                    !- Visible Absorptance

OS:Material,
  {1b5c0f17-5928-4678-b2c6-764d45212bd7}, !- Handle
  Roof Insulation [18],                   !- Name
  MediumRough,                            !- Roughness
  0.1693,                                 !- Thickness {m}
  0.049,                                  !- Conductivity {W/m-K}
  265,                                    !- Density {kg/m3}
  836.800000000001,                       !- Specific Heat {J/kg-K}
  0.9,                                    !- Thermal Absorptance
  0.7,                                    !- Solar Absorptance
  0.7;                                    !- Visible Absorptance

OS:Material,
  {09ac0a5c-225a-46d2-ac98-0062c6761349}, !- Handle
  Metal Decking,                          !- Name
  MediumSmooth,                           !- Roughness
  0.0015,                                 !- Thickness {m}
  45.006,                                 !- Conductivity {W/m-K}
  7680,                                   !- Density {kg/m3}
  418.4,                                  !- Specific Heat {J/kg-K}
  0.9,                                    !- Thermal Absorptance
  0.7,                                    !- Solar Absorptance
  0.3;                                    !- Visible Absorptance

OS:Construction,
  {8d2133eb-e016-46f0-bb04-4ea4d5294606}, !- Handle
  ASHRAE 189.1-2009 ExtRoof IEAD ClimateZone 2-5, !- Name
  ,                                       !- Surface Rendering Name
  {12c3a997-91c2-42d5-847b-72320eb457fe}, !- Layer 1
  {ebe1c664-d369-4591-b00a-62b4812edf81}, !- Layer 2
  {09ac0a5c-225a-46d2-ac98-0062c6761349}; !- Layer 3

OS:StandardsInformation:Construction,
  {b8f0644a-551e-4f01-8e9c-6f2df0eb22f5}, !- Handle
  {8d2133eb-e016-46f0-bb04-4ea4d5294606}, !- Construction Name
  ExteriorRoof,                           !- Intended Surface Type
  IEAD;                                   !- Standards Construction Type

OS:Material,
  {ebe1c664-d369-4591-b00a-62b4812edf81}, !- Handle
  Roof Insulation [21],                   !- Name
  MediumRough,                            !- Roughness
  0.2105,                                 !- Thickness {m}
  0.049,                                  !- Conductivity {W/m-K}
  265,                                    !- Density {kg/m3}
  836.800000000001,                       !- Specific Heat {J/kg-K}
  0.9,                                    !- Thermal Absorptance
  0.7,                                    !- Solar Absorptance
  0.7;                                    !- Visible Absorptance

OS:Construction,
  {c77cda55-eb3d-481c-b869-746d5f1fb431}, !- Handle
  ASHRAE 189.1-2009 ExtRoof IEAD ClimateZone 6, !- Name
  ,                                       !- Surface Rendering Name
  {12c3a997-91c2-42d5-847b-72320eb457fe}, !- Layer 1
  {62c56a68-fe58-4928-8b48-b512a7976ec0}, !- Layer 2
  {09ac0a5c-225a-46d2-ac98-0062c6761349}; !- Layer 3

OS:StandardsInformation:Construction,
  {2c6945a5-ff63-4bd4-acb1-b3dce86a385c}, !- Handle
  {c77cda55-eb3d-481c-b869-746d5f1fb431}, !- Construction Name
  ExteriorRoof,                           !- Intended Surface Type
  IEAD;                                   !- Standards Construction Type

OS:Material,
  {62c56a68-fe58-4928-8b48-b512a7976ec0}, !- Handle
  Roof Insulation [24],                   !- Name
  MediumRough,                            !- Roughness
  0.260100000000001,                      !- Thickness {m}
  0.049,                                  !- Conductivity {W/m-K}
  265,                                    !- Density {kg/m3}
  836.800000000001,                       !- Specific Heat {J/kg-K}
  0.9,                                    !- Thermal Absorptance
  0.7,                                    !- Solar Absorptance
  0.7;                                    !- Visible Absorptance

OS:Construction,
  {086b682c-7912-43a1-a28a-4c7e722f4391}, !- Handle
  ASHRAE 189.1-2009 ExtRoof IEAD ClimateZone 7-8, !- Name
  ,                                       !- Surface Rendering Name
  {12c3a997-91c2-42d5-847b-72320eb457fe}, !- Layer 1
  {aeeacfb4-794a-411d-845d-eaca99d6df72}, !- Layer 2
  {09ac0a5c-225a-46d2-ac98-0062c6761349}; !- Layer 3

OS:StandardsInformation:Construction,
  {dd7a2e47-8962-4b5c-926a-9a09857fcaa6}, !- Handle
  {086b682c-7912-43a1-a28a-4c7e722f4391}, !- Construction Name
  ExteriorRoof,                           !- Intended Surface Type
  IEAD;                                   !- Standards Construction Type

OS:Material,
  {aeeacfb4-794a-411d-845d-eaca99d6df72}, !- Handle
  Roof Insulation [26],                   !- Name
  MediumRough,                            !- Roughness
  0.2941,                                 !- Thickness {m}
  0.049,                                  !- Conductivity {W/m-K}
  265,                                    !- Density {kg/m3}
  836.800000000001,                       !- Specific Heat {J/kg-K}
  0.9,                                    !- Thermal Absorptance
  0.7,                                    !- Solar Absorptance
  0.7;                                    !- Visible Absorptance

OS:Construction,
  {11a83724-6cac-4ad3-a911-39ada6520274}, !- Handle
  ASHRAE 189.1-2009 ExtRoof Metal ClimateZone 1, !- Name
  ,                                       !- Surface Rendering Name
  {e8322a11-86a8-4ddb-a9db-fc3eedec3472}, !- Layer 1
  {5aadee4d-8f44-4846-9c76-452df4dd5577}; !- Layer 2

OS:StandardsInformation:Construction,
  {d2eeb6a2-1aae-44ec-bd7b-be92abccb527}, !- Handle
  {11a83724-6cac-4ad3-a911-39ada6520274}, !- Construction Name
  ExteriorRoof,                           !- Intended Surface Type
  Metal;                                  !- Standards Construction Type

OS:Material,
  {e8322a11-86a8-4ddb-a9db-fc3eedec3472}, !- Handle
  Metal Roofing,                          !- Name
  MediumSmooth,                           !- Roughness
  0.0015,                                 !- Thickness {m}
  45.006,                                 !- Conductivity {W/m-K}
  7680,                                   !- Density {kg/m3}
  418.4,                                  !- Specific Heat {J/kg-K}
  0.9,                                    !- Thermal Absorptance
  0.3,                                    !- Solar Absorptance
  0.3;                                    !- Visible Absorptance

OS:Material,
  {5aadee4d-8f44-4846-9c76-452df4dd5577}, !- Handle
  Roof Insulation [19],                   !- Name
  MediumRough,                            !- Roughness
  0.1868,                                 !- Thickness {m}
  0.049,                                  !- Conductivity {W/m-K}
  265,                                    !- Density {kg/m3}
  836.800000000001,                       !- Specific Heat {J/kg-K}
  0.9,                                    !- Thermal Absorptance
  0.7,                                    !- Solar Absorptance
  0.7;                                    !- Visible Absorptance

OS:Construction,
  {ea98fc68-507c-4644-b46d-40f06754f3ea}, !- Handle
  ASHRAE 189.1-2009 ExtRoof Metal ClimateZone 2-5, !- Name
  ,                                       !- Surface Rendering Name
  {e8322a11-86a8-4ddb-a9db-fc3eedec3472}, !- Layer 1
  {459b2853-5c6b-444c-85d8-e3006c468b39}; !- Layer 2

OS:StandardsInformation:Construction,
  {59881e62-b421-45bd-9047-8d63cf39b23b}, !- Handle
  {ea98fc68-507c-4644-b46d-40f06754f3ea}, !- Construction Name
  ExteriorRoof,                           !- Intended Surface Type
  Metal;                                  !- Standards Construction Type

OS:Material,
  {459b2853-5c6b-444c-85d8-e3006c468b39}, !- Handle
  Roof Insulation [22],                   !- Name
  MediumRough,                            !- Roughness
  0.2358,                                 !- Thickness {m}
  0.049,                                  !- Conductivity {W/m-K}
  265,                                    !- Density {kg/m3}
  836.800000000001,                       !- Specific Heat {J/kg-K}
  0.9,                                    !- Thermal Absorptance
  0.7,                                    !- Solar Absorptance
  0.7;                                    !- Visible Absorptance

OS:Construction,
  {73fb149c-5609-46ff-a611-de14ed3ed524}, !- Handle
  ASHRAE 189.1-2009 ExtRoof Metal ClimateZone 6, !- Name
  ,                                       !- Surface Rendering Name
  {e8322a11-86a8-4ddb-a9db-fc3eedec3472}, !- Layer 1
  {47a19efb-93ca-4ff4-b132-a9ee3cb8b72b}; !- Layer 2

OS:StandardsInformation:Construction,
  {eb3c563d-77b4-4be3-b2c4-d8d04ab5f6d6}, !- Handle
  {73fb149c-5609-46ff-a611-de14ed3ed524}, !- Construction Name
  ExteriorRoof,                           !- Intended Surface Type
  Metal;                                  !- Standards Construction Type

OS:Material,
  {47a19efb-93ca-4ff4-b132-a9ee3cb8b72b}, !- Handle
  Roof Insulation [25],                   !- Name
  MediumRough,                            !- Roughness
  0.263,                                  !- Thickness {m}
  0.049,                                  !- Conductivity {W/m-K}
  265,                                    !- Density {kg/m3}
  836.800000000001,                       !- Specific Heat {J/kg-K}
  0.9,                                    !- Thermal Absorptance
  0.7,                                    !- Solar Absorptance
  0.7;                                    !- Visible Absorptance

OS:Construction,
  {82266270-5712-4a5f-8c70-8198ddd34cfc}, !- Handle
  ASHRAE 189.1-2009 ExtRoof Metal ClimateZone 7-8, !- Name
  ,                                       !- Surface Rendering Name
  {e8322a11-86a8-4ddb-a9db-fc3eedec3472}, !- Layer 1
  {4f9c8596-5adc-42e2-9fcc-e6659bc6f472}; !- Layer 2

OS:StandardsInformation:Construction,
  {21c56a10-3501-48f5-a468-ccac39194f55}, !- Handle
  {82266270-5712-4a5f-8c70-8198ddd34cfc}, !- Construction Name
  ExteriorRoof,                           !- Intended Surface Type
  Metal;                                  !- Standards Construction Type

OS:Material,
  {4f9c8596-5adc-42e2-9fcc-e6659bc6f472}, !- Handle
  Roof Insulation [27],                   !- Name
  MediumRough,                            !- Roughness
  0.297000000000001,                      !- Thickness {m}
  0.049,                                  !- Conductivity {W/m-K}
  265,                                    !- Density {kg/m3}
  836.800000000001,                       !- Specific Heat {J/kg-K}
  0.9,                                    !- Thermal Absorptance
  0.7,                                    !- Solar Absorptance
  0.7;                                    !- Visible Absorptance

OS:Construction,
  {f77ae854-5092-4e18-b0f3-d778f6613a58}, !- Handle
  ASHRAE 189.1-2009 ExtWall Mass ClimateZone 1, !- Name
  ,                                       !- Surface Rendering Name
  {facc0586-3fca-4ba6-956d-61226de4035a}, !- Layer 1
  {1cb466bd-cf55-4bf8-bbb3-03e731b796a7}, !- Layer 2
  {3acd629a-8262-4d1f-94b7-f7835b41d4d2}, !- Layer 3
  {093d9e75-254a-4434-bb87-2e30acf9a26f}; !- Layer 4

OS:StandardsInformation:Construction,
  {c795c413-730d-49cc-9ca6-a1823960dc65}, !- Handle
  {f77ae854-5092-4e18-b0f3-d778f6613a58}, !- Construction Name
  ExteriorWall,                           !- Intended Surface Type
  Mass;                                   !- Standards Construction Type

OS:Material,
  {facc0586-3fca-4ba6-956d-61226de4035a}, !- Handle
  1IN Stucco,                             !- Name
  Smooth,                                 !- Roughness
  0.0253,                                 !- Thickness {m}
  0.691799999999999,                      !- Conductivity {W/m-K}
  1858,                                   !- Density {kg/m3}
  836.999999999999,                       !- Specific Heat {J/kg-K}
  0.9,                                    !- Thermal Absorptance
  0.92,                                   !- Solar Absorptance
  0.92;                                   !- Visible Absorptance

OS:Material,
  {1cb466bd-cf55-4bf8-bbb3-03e731b796a7}, !- Handle
  8IN Concrete HW,                        !- Name
  MediumRough,                            !- Roughness
  0.2033,                                 !- Thickness {m}
  1.72959999999999,                       !- Conductivity {W/m-K}
  2242.99999999999,                       !- Density {kg/m3}
  836.999999999999,                       !- Specific Heat {J/kg-K}
  0.9,                                    !- Thermal Absorptance
  0.65,                                   !- Solar Absorptance
  0.65;                                   !- Visible Absorptance

OS:Material,
  {3acd629a-8262-4d1f-94b7-f7835b41d4d2}, !- Handle
  Wall Insulation [31],                   !- Name
  MediumRough,                            !- Roughness
  0.0337000000000001,                     !- Thickness {m}
  0.0432,                                 !- Conductivity {W/m-K}
  91,                                     !- Density {kg/m3}
  836.999999999999,                       !- Specific Heat {J/kg-K}
  0.9,                                    !- Thermal Absorptance
  0.5,                                    !- Solar Absorptance
  0.5;                                    !- Visible Absorptance

OS:Construction,
  {bc02248b-8d38-4479-a9fb-b405ecc66bbc}, !- Handle
  ASHRAE 189.1-2009 ExtWall Mass ClimateZone 2, !- Name
  ,                                       !- Surface Rendering Name
  {facc0586-3fca-4ba6-956d-61226de4035a}, !- Layer 1
  {1cb466bd-cf55-4bf8-bbb3-03e731b796a7}, !- Layer 2
  {16fe576e-40a2-422f-b0e8-a5b8b0190525}, !- Layer 3
  {093d9e75-254a-4434-bb87-2e30acf9a26f}; !- Layer 4

OS:StandardsInformation:Construction,
  {352589c3-321f-4da7-82e3-4a1cc8c4ced6}, !- Handle
  {bc02248b-8d38-4479-a9fb-b405ecc66bbc}, !- Construction Name
  ExteriorWall,                           !- Intended Surface Type
  Mass;                                   !- Standards Construction Type

OS:Material,
  {16fe576e-40a2-422f-b0e8-a5b8b0190525}, !- Handle
  Wall Insulation [35],                   !- Name
  MediumRough,                            !- Roughness
  0.0452,                                 !- Thickness {m}
  0.0432,                                 !- Conductivity {W/m-K}
  91,                                     !- Density {kg/m3}
  836.999999999999,                       !- Specific Heat {J/kg-K}
  0.9,                                    !- Thermal Absorptance
  0.5,                                    !- Solar Absorptance
  0.5;                                    !- Visible Absorptance

OS:Construction,
  {9e18bda6-58d7-4047-ada0-0b281fa29407}, !- Handle
  ASHRAE 189.1-2009 ExtWall Mass ClimateZone 3, !- Name
  ,                                       !- Surface Rendering Name
  {facc0586-3fca-4ba6-956d-61226de4035a}, !- Layer 1
  {1cb466bd-cf55-4bf8-bbb3-03e731b796a7}, !- Layer 2
  {6b37db91-c176-4090-950e-fe45d440aa7b}, !- Layer 3
  {093d9e75-254a-4434-bb87-2e30acf9a26f}; !- Layer 4

OS:StandardsInformation:Construction,
  {b7155f6b-710c-4e5d-a3b2-2b3f0342e219}, !- Handle
  {9e18bda6-58d7-4047-ada0-0b281fa29407}, !- Construction Name
  ExteriorWall,                           !- Intended Surface Type
  Mass;                                   !- Standards Construction Type

OS:Material,
  {6b37db91-c176-4090-950e-fe45d440aa7b}, !- Handle
  Wall Insulation [36],                   !- Name
  MediumRough,                            !- Roughness
  0.0565999999999999,                     !- Thickness {m}
  0.0432,                                 !- Conductivity {W/m-K}
  91,                                     !- Density {kg/m3}
  836.999999999999,                       !- Specific Heat {J/kg-K}
  0.9,                                    !- Thermal Absorptance
  0.5,                                    !- Solar Absorptance
  0.5;                                    !- Visible Absorptance

OS:Construction,
  {b2cf5ff7-025b-410a-a794-322ff4012d2d}, !- Handle
  ASHRAE 189.1-2009 ExtWall Mass ClimateZone 4, !- Name
  ,                                       !- Surface Rendering Name
  {facc0586-3fca-4ba6-956d-61226de4035a}, !- Layer 1
  {1cb466bd-cf55-4bf8-bbb3-03e731b796a7}, !- Layer 2
  {294d97f2-5ab7-44be-8f1a-2a1ec2eff654}, !- Layer 3
  {093d9e75-254a-4434-bb87-2e30acf9a26f}; !- Layer 4

OS:StandardsInformation:Construction,
  {63f826de-41a2-405c-ba81-5fd1eba37052}, !- Handle
  {b2cf5ff7-025b-410a-a794-322ff4012d2d}, !- Construction Name
  ExteriorWall,                           !- Intended Surface Type
  Mass;                                   !- Standards Construction Type

OS:Material,
  {294d97f2-5ab7-44be-8f1a-2a1ec2eff654}, !- Handle
  Wall Insulation [37],                   !- Name
  MediumRough,                            !- Roughness
  0.0680999999999999,                     !- Thickness {m}
  0.0432,                                 !- Conductivity {W/m-K}
  91,                                     !- Density {kg/m3}
  836.999999999999,                       !- Specific Heat {J/kg-K}
  0.9,                                    !- Thermal Absorptance
  0.5,                                    !- Solar Absorptance
  0.5;                                    !- Visible Absorptance

OS:Construction,
  {c17580ba-ee5c-41fc-80ca-4903d4899e0b}, !- Handle
  ASHRAE 189.1-2009 ExtWall Mass ClimateZone 5, !- Name
  ,                                       !- Surface Rendering Name
  {facc0586-3fca-4ba6-956d-61226de4035a}, !- Layer 1
  {1cb466bd-cf55-4bf8-bbb3-03e731b796a7}, !- Layer 2
  {d2a5a7a7-2aac-4887-b2a7-f99b9ecca645}, !- Layer 3
  {093d9e75-254a-4434-bb87-2e30acf9a26f}; !- Layer 4

OS:StandardsInformation:Construction,
  {35ab379f-a464-445e-834c-c307e570cc1d}, !- Handle
  {c17580ba-ee5c-41fc-80ca-4903d4899e0b}, !- Construction Name
  ExteriorWall,                           !- Intended Surface Type
  Mass;                                   !- Standards Construction Type

OS:Material,
  {d2a5a7a7-2aac-4887-b2a7-f99b9ecca645}, !- Handle
  Wall Insulation [40],                   !- Name
  MediumRough,                            !- Roughness
  0.0793999999999999,                     !- Thickness {m}
  0.0432,                                 !- Conductivity {W/m-K}
  91,                                     !- Density {kg/m3}
  836.999999999999,                       !- Specific Heat {J/kg-K}
  0.9,                                    !- Thermal Absorptance
  0.5,                                    !- Solar Absorptance
  0.5;                                    !- Visible Absorptance

OS:Construction,
  {c6085d08-cbd2-45a2-a2db-18fbbe05b656}, !- Handle
  ASHRAE 189.1-2009 ExtWall Mass ClimateZone 6, !- Name
  ,                                       !- Surface Rendering Name
  {facc0586-3fca-4ba6-956d-61226de4035a}, !- Layer 1
  {1cb466bd-cf55-4bf8-bbb3-03e731b796a7}, !- Layer 2
  {9789830d-cec7-4aa6-9999-d5bf65b4376f}, !- Layer 3
  {093d9e75-254a-4434-bb87-2e30acf9a26f}; !- Layer 4

OS:StandardsInformation:Construction,
  {bea8273a-d963-4111-8e11-742d321af125}, !- Handle
  {c6085d08-cbd2-45a2-a2db-18fbbe05b656}, !- Construction Name
  ExteriorWall,                           !- Intended Surface Type
  Mass;                                   !- Standards Construction Type

OS:Material,
  {9789830d-cec7-4aa6-9999-d5bf65b4376f}, !- Handle
  Wall Insulation [42],                   !- Name
  MediumRough,                            !- Roughness
  0.0913999999999999,                     !- Thickness {m}
  0.0432,                                 !- Conductivity {W/m-K}
  91,                                     !- Density {kg/m3}
  836.999999999999,                       !- Specific Heat {J/kg-K}
  0.9,                                    !- Thermal Absorptance
  0.5,                                    !- Solar Absorptance
  0.5;                                    !- Visible Absorptance

OS:Construction,
  {e022ab4d-7551-4b4d-81fc-fa991582bc59}, !- Handle
  ASHRAE 189.1-2009 ExtWall Mass ClimateZone 7-8, !- Name
  ,                                       !- Surface Rendering Name
  {facc0586-3fca-4ba6-956d-61226de4035a}, !- Layer 1
  {1cb466bd-cf55-4bf8-bbb3-03e731b796a7}, !- Layer 2
  {cdc1a446-8faa-4c12-8bb2-d1638d53670e}, !- Layer 3
  {093d9e75-254a-4434-bb87-2e30acf9a26f}; !- Layer 4

OS:StandardsInformation:Construction,
  {a544dcea-9361-4442-9b2d-cf1c130826d3}, !- Handle
  {e022ab4d-7551-4b4d-81fc-fa991582bc59}, !- Construction Name
  ExteriorWall,                           !- Intended Surface Type
  Mass;                                   !- Standards Construction Type

OS:Material,
  {cdc1a446-8faa-4c12-8bb2-d1638d53670e}, !- Handle
  Wall Insulation [44],                   !- Name
  MediumRough,                            !- Roughness
  0.1104,                                 !- Thickness {m}
  0.0432,                                 !- Conductivity {W/m-K}
  91,                                     !- Density {kg/m3}
  836.999999999999,                       !- Specific Heat {J/kg-K}
  0.9,                                    !- Thermal Absorptance
  0.5,                                    !- Solar Absorptance
  0.5;                                    !- Visible Absorptance

OS:Construction,
  {90aa1a65-4f9d-4468-b2b8-ede7766645ed}, !- Handle
  ASHRAE 189.1-2009 ExtWall Mass ClimateZone alt-res 1, !- Name
  ,                                       !- Surface Rendering Name
  {facc0586-3fca-4ba6-956d-61226de4035a}, !- Layer 1
  {1cb466bd-cf55-4bf8-bbb3-03e731b796a7}, !- Layer 2
  {16fe576e-40a2-422f-b0e8-a5b8b0190525}, !- Layer 3
  {093d9e75-254a-4434-bb87-2e30acf9a26f}; !- Layer 4

OS:StandardsInformation:Construction,
  {07ce4f59-565f-4826-83da-533cc3368f19}, !- Handle
  {90aa1a65-4f9d-4468-b2b8-ede7766645ed}, !- Construction Name
  ExteriorWall,                           !- Intended Surface Type
  Mass;                                   !- Standards Construction Type

OS:Construction,
  {f1498fa8-1f39-44bc-8926-ff0feb1c69b8}, !- Handle
  ASHRAE 189.1-2009 ExtWall Mass ClimateZone alt-res 2, !- Name
  ,                                       !- Surface Rendering Name
  {facc0586-3fca-4ba6-956d-61226de4035a}, !- Layer 1
  {1cb466bd-cf55-4bf8-bbb3-03e731b796a7}, !- Layer 2
  {6b37db91-c176-4090-950e-fe45d440aa7b}, !- Layer 3
  {093d9e75-254a-4434-bb87-2e30acf9a26f}; !- Layer 4

OS:StandardsInformation:Construction,
  {d331a925-1fc1-4437-a728-5731bac51f95}, !- Handle
  {f1498fa8-1f39-44bc-8926-ff0feb1c69b8}, !- Construction Name
  ExteriorWall,                           !- Intended Surface Type
  Mass;                                   !- Standards Construction Type

OS:Construction,
  {2e0d4656-e5a2-4112-9b70-6b07145e2627}, !- Handle
  ASHRAE 189.1-2009 ExtWall Mass ClimateZone alt-res 3, !- Name
  ,                                       !- Surface Rendering Name
  {facc0586-3fca-4ba6-956d-61226de4035a}, !- Layer 1
  {1cb466bd-cf55-4bf8-bbb3-03e731b796a7}, !- Layer 2
  {294d97f2-5ab7-44be-8f1a-2a1ec2eff654}, !- Layer 3
  {093d9e75-254a-4434-bb87-2e30acf9a26f}; !- Layer 4

OS:StandardsInformation:Construction,
  {0f529b93-1a5e-4c00-b5ef-7273d7c76ddc}, !- Handle
  {2e0d4656-e5a2-4112-9b70-6b07145e2627}, !- Construction Name
  ExteriorWall,                           !- Intended Surface Type
  Mass;                                   !- Standards Construction Type

OS:Construction,
  {b9b70a99-abe0-4d5c-b178-e23fb686e138}, !- Handle
  ASHRAE 189.1-2009 ExtWall Mass ClimateZone alt-res 4, !- Name
  ,                                       !- Surface Rendering Name
  {facc0586-3fca-4ba6-956d-61226de4035a}, !- Layer 1
  {1cb466bd-cf55-4bf8-bbb3-03e731b796a7}, !- Layer 2
  {d2a5a7a7-2aac-4887-b2a7-f99b9ecca645}, !- Layer 3
  {093d9e75-254a-4434-bb87-2e30acf9a26f}; !- Layer 4

OS:StandardsInformation:Construction,
  {50a1bcdb-2a0e-45c0-944a-8722bc3e51b1}, !- Handle
  {b9b70a99-abe0-4d5c-b178-e23fb686e138}, !- Construction Name
  ExteriorWall,                           !- Intended Surface Type
  Mass;                                   !- Standards Construction Type

OS:Construction,
  {fa7f886f-ef21-4931-80fe-d740704dbfed}, !- Handle
  ASHRAE 189.1-2009 ExtWall Mass ClimateZone alt-res 5, !- Name
  ,                                       !- Surface Rendering Name
  {facc0586-3fca-4ba6-956d-61226de4035a}, !- Layer 1
  {1cb466bd-cf55-4bf8-bbb3-03e731b796a7}, !- Layer 2
  {9789830d-cec7-4aa6-9999-d5bf65b4376f}, !- Layer 3
  {093d9e75-254a-4434-bb87-2e30acf9a26f}; !- Layer 4

OS:StandardsInformation:Construction,
  {f9761889-d872-4e01-8e46-3b8fa3953b1f}, !- Handle
  {fa7f886f-ef21-4931-80fe-d740704dbfed}, !- Construction Name
  ExteriorWall,                           !- Intended Surface Type
  Mass;                                   !- Standards Construction Type

OS:Construction,
  {3a409b54-05a4-4635-99bb-afc882e9bef0}, !- Handle
  ASHRAE 189.1-2009 ExtWall Mass ClimateZone alt-res 6, !- Name
  ,                                       !- Surface Rendering Name
  {facc0586-3fca-4ba6-956d-61226de4035a}, !- Layer 1
  {1cb466bd-cf55-4bf8-bbb3-03e731b796a7}, !- Layer 2
  {cdc1a446-8faa-4c12-8bb2-d1638d53670e}, !- Layer 3
  {093d9e75-254a-4434-bb87-2e30acf9a26f}; !- Layer 4

OS:StandardsInformation:Construction,
  {af5efd33-6a40-4c12-b72f-520f27d31461}, !- Handle
  {3a409b54-05a4-4635-99bb-afc882e9bef0}, !- Construction Name
  ExteriorWall,                           !- Intended Surface Type
  Mass;                                   !- Standards Construction Type

OS:Construction,
  {63c7f1d7-557e-4641-9270-68f8c0ff4ed8}, !- Handle
  ASHRAE 189.1-2009 ExtWall Mass ClimateZone alt-res 7, !- Name
  ,                                       !- Surface Rendering Name
  {facc0586-3fca-4ba6-956d-61226de4035a}, !- Layer 1
  {1cb466bd-cf55-4bf8-bbb3-03e731b796a7}, !- Layer 2
  {cdc1a446-8faa-4c12-8bb2-d1638d53670e}, !- Layer 3
  {093d9e75-254a-4434-bb87-2e30acf9a26f}; !- Layer 4

OS:StandardsInformation:Construction,
  {b995e65d-b635-462b-9e01-00d39106d155}, !- Handle
  {63c7f1d7-557e-4641-9270-68f8c0ff4ed8}, !- Construction Name
  ExteriorWall,                           !- Intended Surface Type
  Mass;                                   !- Standards Construction Type

OS:Construction,
  {7a0b1d76-3867-4c2e-9523-182a13873496}, !- Handle
  ASHRAE 189.1-2009 ExtWall Mass ClimateZone alt-res 8, !- Name