
OS:Version,
  {c134769e-978c-4780-81ce-a84af694fa72}, !- Handle
  1.4.0;                                  !- Version Identifier

OS:Construction,
  {d8cda59e-ee0c-4d5a-a988-a25d2fd11712}, !- Handle
  ASHRAE 189.1-2009 AtticFloor ClimateZone 1-8, !- Name
  ,                                       !- Surface Rendering Name
  {05902c64-f333-48ea-9dd9-d5a2325fec4c}, !- Layer 1
  {6ecd6047-1c08-4d5e-aaab-9d8b1b376d2f}, !- Layer 2
  {05902c64-f333-48ea-9dd9-d5a2325fec4c}; !- Layer 3

OS:StandardsInformation:Construction,
  {c6d65f17-699a-4ede-8e92-0b8f52e9fadb}, !- Handle
  {d8cda59e-ee0c-4d5a-a988-a25d2fd11712}, !- Construction Name
  AtticFloor,                             !- Intended Surface Type
  WoodFramed;                             !- Standards Construction Type

OS:Material,
  {05902c64-f333-48ea-9dd9-d5a2325fec4c}, !- Handle
  1/2IN Gypsum,                           !- Name
  Smooth,                                 !- Roughness
  0.0127,                                 !- Thickness {m}
  0.16,                                   !- Conductivity {W/m-K}
  784.9,                                  !- Density {kg/m3}
  830.000000000001,                       !- Specific Heat {J/kg-K}
  0.9,                                    !- Thermal Absorptance
  0.4,                                    !- Solar Absorptance
  0.4;                                    !- Visible Absorptance

OS:Material,
  {6ecd6047-1c08-4d5e-aaab-9d8b1b376d2f}, !- Handle
  AtticFloor Insulation,                  !- Name
  MediumRough,                            !- Roughness
  0.2379,                                 !- Thickness {m}
  0.049,                                  !- Conductivity {W/m-K}
  265,                                    !- Density {kg/m3}
  836.800000000001,                       !- Specific Heat {J/kg-K}
  0.9,                                    !- Thermal Absorptance
  0.7,                                    !- Solar Absorptance
  0.7;                                    !- Visible Absorptance

OS:Construction,
  {03d1bd67-81a8-4daf-aac5-180606b0ce5a}, !- Handle
  ASHRAE 189.1-2009 ExtRoof IEAD ClimateZone 1, !- Name
  ,                                       !- Surface Rendering Name
  {ae641f95-7109-4b84-b9e0-5bd7dc5aa7ed}, !- Layer 1
  {89bef681-6510-4c81-8c39-8876bc63f4a3}, !- Layer 2
  {3a34e88b-3b08-4c0a-9f22-3b9bcfcfab31}; !- Layer 3

OS:StandardsInformation:Construction,
  {a443a208-cd0d-46e9-babf-1ad403423e4c}, !- Handle
  {03d1bd67-81a8-4daf-aac5-180606b0ce5a}, !- Construction Name
  ExteriorRoof,                           !- Intended Surface Type
  IEAD;                                   !- Standards Construction Type

OS:Material,
  {ae641f95-7109-4b84-b9e0-5bd7dc5aa7ed}, !- Handle
  Roof Membrane,                          !- Name
  VeryRough,                              !- Roughness
  0.0095,                                 !- Thickness {m}
  0.16,                                   !- Conductivity {W/m-K}
  1121.29,                                !- Density {kg/m3}
  1460,                                   !- Specific Heat {J/kg-K}
  0.9,                                    !- Thermal Absorptance
  0.7,                                    !- Solar Absorptance
  0.7;                                    !- Visible Absorptance

OS:Material,
  {89bef681-6510-4c81-8c39-8876bc63f4a3}, !- Handle
  Roof Insulation [18],                   !- Name
  MediumRough,                            !- Roughness
  0.1693,                                 !- Thickness {m}
  0.049,                                  !- Conductivity {W/m-K}
  265,                                    !- Density {kg/m3}
  836.800000000001,                       !- Specific Heat {J/kg-K}
  0.9,                                    !- Thermal Absorptance
  0.7,                                    !- Solar Absorptance
  0.7;                                    !- Visible Absorptance

OS:Material,
  {3a34e88b-3b08-4c0a-9f22-3b9bcfcfab31}, !- Handle
  Metal Decking,                          !- Name
  MediumSmooth,                           !- Roughness
  0.0015,                                 !- Thickness {m}
  45.006,                                 !- Conductivity {W/m-K}
  7680,                                   !- Density {kg/m3}
  418.4,                                  !- Specific Heat {J/kg-K}
  0.9,                                    !- Thermal Absorptance
  0.6,                                    !- Solar Absorptance
  0.6;                                    !- Visible Absorptance

OS:Construction,
  {c19893c3-dc8b-4f15-9a97-707f4858c385}, !- Handle
  ASHRAE 189.1-2009 ExtRoof IEAD ClimateZone 2-5, !- Name
  ,                                       !- Surface Rendering Name
  {ae641f95-7109-4b84-b9e0-5bd7dc5aa7ed}, !- Layer 1
  {a029b468-6b02-4ae5-933d-d6de2707dcbe}, !- Layer 2
  {3a34e88b-3b08-4c0a-9f22-3b9bcfcfab31}; !- Layer 3

OS:StandardsInformation:Construction,
  {4aeb542c-0b4a-4356-807d-2700f07677fd}, !- Handle
  {c19893c3-dc8b-4f15-9a97-707f4858c385}, !- Construction Name
  ExteriorRoof,                           !- Intended Surface Type
  IEAD;                                   !- Standards Construction Type

OS:Material,
  {a029b468-6b02-4ae5-933d-d6de2707dcbe}, !- Handle
  Roof Insulation [21],                   !- Name
  MediumRough,                            !- Roughness
  0.2105,                                 !- Thickness {m}
  0.049,                                  !- Conductivity {W/m-K}
  265,                                    !- Density {kg/m3}
  836.800000000001,                       !- Specific Heat {J/kg-K}
  0.9,                                    !- Thermal Absorptance
  0.7,                                    !- Solar Absorptance
  0.7;                                    !- Visible Absorptance

OS:Construction,
  {484c630a-8ad7-4851-991a-5c81a98abf4c}, !- Handle
  ASHRAE 189.1-2009 ExtRoof IEAD ClimateZone 6, !- Name
  ,                                       !- Surface Rendering Name
  {ae641f95-7109-4b84-b9e0-5bd7dc5aa7ed}, !- Layer 1
  {0f0672f1-22c0-4dd3-83d4-8f63591d2d38}, !- Layer 2
  {3a34e88b-3b08-4c0a-9f22-3b9bcfcfab31}; !- Layer 3

OS:StandardsInformation:Construction,
  {40f77353-1d96-4795-931d-725e59791623}, !- Handle
  {484c630a-8ad7-4851-991a-5c81a98abf4c}, !- Construction Name
  ExteriorRoof,                           !- Intended Surface Type
  IEAD;                                   !- Standards Construction Type

OS:Material,
  {0f0672f1-22c0-4dd3-83d4-8f63591d2d38}, !- Handle
  Roof Insulation [24],                   !- Name
  MediumRough,                            !- Roughness
  0.260100000000001,                      !- Thickness {m}
  0.049,                                  !- Conductivity {W/m-K}
  265,                                    !- Density {kg/m3}
  836.800000000001,                       !- Specific Heat {J/kg-K}
  0.9,                                    !- Thermal Absorptance
  0.7,                                    !- Solar Absorptance
  0.7;                                    !- Visible Absorptance

OS:Construction,
  {145d5438-51ea-461a-a125-6e7a270c6abe}, !- Handle
  ASHRAE 189.1-2009 ExtRoof IEAD ClimateZone 7-8, !- Name
  ,                                       !- Surface Rendering Name
  {ae641f95-7109-4b84-b9e0-5bd7dc5aa7ed}, !- Layer 1
  {25d5b35e-6e85-451d-9df1-53db606569b9}, !- Layer 2
  {3a34e88b-3b08-4c0a-9f22-3b9bcfcfab31}; !- Layer 3

OS:StandardsInformation:Construction,
  {a975d244-52c8-4b6a-8fff-4d9a5d845b76}, !- Handle
  {145d5438-51ea-461a-a125-6e7a270c6abe}, !- Construction Name
  ExteriorRoof,                           !- Intended Surface Type
  IEAD;                                   !- Standards Construction Type

OS:Material,
  {25d5b35e-6e85-451d-9df1-53db606569b9}, !- Handle
  Roof Insulation [26],                   !- Name
  MediumRough,                            !- Roughness
  0.2941,                                 !- Thickness {m}
  0.049,                                  !- Conductivity {W/m-K}
  265,                                    !- Density {kg/m3}
  836.800000000001,                       !- Specific Heat {J/kg-K}
  0.9,                                    !- Thermal Absorptance
  0.7,                                    !- Solar Absorptance
  0.7;                                    !- Visible Absorptance

OS:Construction,
  {25dd2e8f-860b-4879-98f5-96e05abc5273}, !- Handle
  ASHRAE 189.1-2009 ExtRoof Metal ClimateZone 1, !- Name
  ,                                       !- Surface Rendering Name
  {f68fe41b-2f66-45df-a3dd-2a322c58495f}, !- Layer 1
  {b1ce5063-b3b7-4ec6-b503-c908719885d8}, !- Layer 2
  {3a34e88b-3b08-4c0a-9f22-3b9bcfcfab31}; !- Layer 3

OS:StandardsInformation:Construction,
  {172c9be5-09d2-4de9-9b04-d040262c3d94}, !- Handle
  {25dd2e8f-860b-4879-98f5-96e05abc5273}, !- Construction Name
  ExteriorRoof,                           !- Intended Surface Type
  Metal;                                  !- Standards Construction Type

OS:Material,
  {f68fe41b-2f66-45df-a3dd-2a322c58495f}, !- Handle
  Metal Roofing,                          !- Name
  MediumSmooth,                           !- Roughness
  0.0015,                                 !- Thickness {m}
  45.006,                                 !- Conductivity {W/m-K}
  7680,                                   !- Density {kg/m3}
  418.4,                                  !- Specific Heat {J/kg-K}
  0.9,                                    !- Thermal Absorptance
  0.6,                                    !- Solar Absorptance
  0.6;                                    !- Visible Absorptance

OS:Material,
  {b1ce5063-b3b7-4ec6-b503-c908719885d8}, !- Handle
  Roof Insulation [19],                   !- Name
  MediumRough,                            !- Roughness
  0.1868,                                 !- Thickness {m}
  0.049,                                  !- Conductivity {W/m-K}
  265,                                    !- Density {kg/m3}
  836.800000000001,                       !- Specific Heat {J/kg-K}
  0.9,                                    !- Thermal Absorptance
  0.7,                                    !- Solar Absorptance
  0.7;                                    !- Visible Absorptance

OS:Construction,
  {5b6734fe-fcef-4c12-bfc8-77992028b59a}, !- Handle
  ASHRAE 189.1-2009 ExtRoof Metal ClimateZone 2-5, !- Name
  ,                                       !- Surface Rendering Name
  {f68fe41b-2f66-45df-a3dd-2a322c58495f}, !- Layer 1
  {8e565682-cff4-43b4-861f-087f1b402191}, !- Layer 2
  {3a34e88b-3b08-4c0a-9f22-3b9bcfcfab31}; !- Layer 3

OS:StandardsInformation:Construction,
  {0efaf389-4101-43d9-bed5-ba4ff6e00458}, !- Handle
  {5b6734fe-fcef-4c12-bfc8-77992028b59a}, !- Construction Name
  ExteriorRoof,                           !- Intended Surface Type
  Metal;                                  !- Standards Construction Type

OS:Material,
  {8e565682-cff4-43b4-861f-087f1b402191}, !- Handle
  Roof Insulation [22],                   !- Name
  MediumRough,                            !- Roughness
  0.2358,                                 !- Thickness {m}
  0.049,                                  !- Conductivity {W/m-K}
  265,                                    !- Density {kg/m3}
  836.800000000001,                       !- Specific Heat {J/kg-K}
  0.9,                                    !- Thermal Absorptance
  0.7,                                    !- Solar Absorptance
  0.7;                                    !- Visible Absorptance

OS:Construction,
  {857f40e8-21e0-42fa-9a04-5bbd5f697984}, !- Handle
  ASHRAE 189.1-2009 ExtRoof Metal ClimateZone 6, !- Name
  ,                                       !- Surface Rendering Name
  {f68fe41b-2f66-45df-a3dd-2a322c58495f}, !- Layer 1
  {1ac26450-46cc-4362-8bc7-f732de6f908c}, !- Layer 2
  {3a34e88b-3b08-4c0a-9f22-3b9bcfcfab31}; !- Layer 3

OS:StandardsInformation:Construction,
  {e958f613-4bff-473d-bf4b-aada23a5ef56}, !- Handle
  {857f40e8-21e0-42fa-9a04-5bbd5f697984}, !- Construction Name
  ExteriorRoof,                           !- Intended Surface Type
  Metal;                                  !- Standards Construction Type

OS:Material,
  {1ac26450-46cc-4362-8bc7-f732de6f908c}, !- Handle
  Roof Insulation [25],                   !- Name
  MediumRough,                            !- Roughness
  0.263,                                  !- Thickness {m}
  0.049,                                  !- Conductivity {W/m-K}
  265,                                    !- Density {kg/m3}
  836.800000000001,                       !- Specific Heat {J/kg-K}
  0.9,                                    !- Thermal Absorptance
  0.7,                                    !- Solar Absorptance
  0.7;                                    !- Visible Absorptance

OS:Construction,
  {9820089b-d7ff-43df-8151-66f9dd8344d9}, !- Handle
  ASHRAE 189.1-2009 ExtRoof Metal ClimateZone 7-8, !- Name
  ,                                       !- Surface Rendering Name
  {f68fe41b-2f66-45df-a3dd-2a322c58495f}, !- Layer 1
  {bc88b3a0-2243-48db-8e43-35dd4ba6ebeb}, !- Layer 2
  {3a34e88b-3b08-4c0a-9f22-3b9bcfcfab31}; !- Layer 3

OS:StandardsInformation:Construction,
  {466bbcb7-3d0c-43a4-9a83-7a11aad9c446}, !- Handle
  {9820089b-d7ff-43df-8151-66f9dd8344d9}, !- Construction Name
  ExteriorRoof,                           !- Intended Surface Type
  Metal;                                  !- Standards Construction Type

OS:Material,
  {bc88b3a0-2243-48db-8e43-35dd4ba6ebeb}, !- Handle
  Roof Insulation [27],                   !- Name
  MediumRough,                            !- Roughness
  0.297000000000001,                      !- Thickness {m}
  0.049,                                  !- Conductivity {W/m-K}
  265,                                    !- Density {kg/m3}
  836.800000000001,                       !- Specific Heat {J/kg-K}
  0.9,                                    !- Thermal Absorptance
  0.7,                                    !- Solar Absorptance
  0.7;                                    !- Visible Absorptance

OS:Construction,
  {f734e066-69ca-44ec-885b-d6f8251b5684}, !- Handle
  ASHRAE 189.1-2009 ExtWall Mass ClimateZone 1, !- Name
  ,                                       !- Surface Rendering Name
  {96e1eb34-af32-4213-9aae-636098ad8ede}, !- Layer 1
  {3b5f26c5-fecb-4966-bf1d-4f8c9bf8b769}, !- Layer 2
  {486f05dc-980c-43f5-8a2d-f14691299063}, !- Layer 3
  {05902c64-f333-48ea-9dd9-d5a2325fec4c}; !- Layer 4

OS:StandardsInformation:Construction,
  {50f9ad2d-bd8d-42d9-ae89-de021ec016eb}, !- Handle
  {f734e066-69ca-44ec-885b-d6f8251b5684}, !- Construction Name
  ExteriorWall,                           !- Intended Surface Type
  Mass;                                   !- Standards Construction Type

OS:Material,
  {96e1eb34-af32-4213-9aae-636098ad8ede}, !- Handle
  1IN Stucco,                             !- Name
  Smooth,                                 !- Roughness
  0.0253,                                 !- Thickness {m}
  0.691799999999999,                      !- Conductivity {W/m-K}
  1858,                                   !- Density {kg/m3}
  836.999999999999,                       !- Specific Heat {J/kg-K}
  0.9,                                    !- Thermal Absorptance
  0.92,                                   !- Solar Absorptance
  0.92;                                   !- Visible Absorptance

OS:Material,
  {3b5f26c5-fecb-4966-bf1d-4f8c9bf8b769}, !- Handle
  8IN Concrete HW,                        !- Name
  MediumRough,                            !- Roughness
  0.2033,                                 !- Thickness {m}
  1.72959999999999,                       !- Conductivity {W/m-K}
  2242.99999999999,                       !- Density {kg/m3}
  836.999999999999,                       !- Specific Heat {J/kg-K}
  0.9,                                    !- Thermal Absorptance
  0.65,                                   !- Solar Absorptance
  0.65;                                   !- Visible Absorptance

OS:Material,
  {486f05dc-980c-43f5-8a2d-f14691299063}, !- Handle
  Wall Insulation [31],                   !- Name
  MediumRough,                            !- Roughness
  0.0337000000000001,                     !- Thickness {m}
  0.0432,                                 !- Conductivity {W/m-K}
  91,                                     !- Density {kg/m3}
  836.999999999999,                       !- Specific Heat {J/kg-K}
  0.9,                                    !- Thermal Absorptance
  0.5,                                    !- Solar Absorptance
  0.5;                                    !- Visible Absorptance

OS:Construction,
  {8eee2843-befc-4ce1-ade6-49135855890c}, !- Handle
  ASHRAE 189.1-2009 ExtWall Mass ClimateZone 2, !- Name
  ,                                       !- Surface Rendering Name
  {96e1eb34-af32-4213-9aae-636098ad8ede}, !- Layer 1
  {3b5f26c5-fecb-4966-bf1d-4f8c9bf8b769}, !- Layer 2
  {15e9e13c-f0c2-46e0-a2de-f2c081c364bd}, !- Layer 3
  {05902c64-f333-48ea-9dd9-d5a2325fec4c}; !- Layer 4

OS:StandardsInformation:Construction,
  {bd0abc89-6bb5-4345-a70c-5c46eaa4bfd5}, !- Handle
  {8eee2843-befc-4ce1-ade6-49135855890c}, !- Construction Name
  ExteriorWall,                           !- Intended Surface Type
  Mass;                                   !- Standards Construction Type

OS:Material,
  {15e9e13c-f0c2-46e0-a2de-f2c081c364bd}, !- Handle
  Wall Insulation [35],                   !- Name
  MediumRough,                            !- Roughness
  0.0452,                                 !- Thickness {m}
  0.0432,                                 !- Conductivity {W/m-K}
  91,                                     !- Density {kg/m3}
  836.999999999999,                       !- Specific Heat {J/kg-K}
  0.9,                                    !- Thermal Absorptance
  0.5,                                    !- Solar Absorptance
  0.5;                                    !- Visible Absorptance

OS:Construction,
  {386c5bc9-1eb7-4192-a930-4844325e445a}, !- Handle
  ASHRAE 189.1-2009 ExtWall Mass ClimateZone 3, !- Name
  ,                                       !- Surface Rendering Name
  {96e1eb34-af32-4213-9aae-636098ad8ede}, !- Layer 1
  {3b5f26c5-fecb-4966-bf1d-4f8c9bf8b769}, !- Layer 2
  {803c361a-48ac-4846-9ef4-d46922f800c1}, !- Layer 3
  {05902c64-f333-48ea-9dd9-d5a2325fec4c}; !- Layer 4

OS:StandardsInformation:Construction,
  {37bb0aff-2ed3-4d0f-a4c5-2cc4f720d779}, !- Handle
  {386c5bc9-1eb7-4192-a930-4844325e445a}, !- Construction Name
  ExteriorWall,                           !- Intended Surface Type
  Mass;                                   !- Standards Construction Type

OS:Material,
  {803c361a-48ac-4846-9ef4-d46922f800c1}, !- Handle
  Wall Insulation [36],                   !- Name
  MediumRough,                            !- Roughness
  0.0565999999999999,                     !- Thickness {m}
  0.0432,                                 !- Conductivity {W/m-K}
  91,                                     !- Density {kg/m3}
  836.999999999999,                       !- Specific Heat {J/kg-K}
  0.9,                                    !- Thermal Absorptance
  0.5,                                    !- Solar Absorptance
  0.5;                                    !- Visible Absorptance

OS:Construction,
  {ac7273b1-421f-4162-a514-fc06d0d5bab9}, !- Handle
  ASHRAE 189.1-2009 ExtWall Mass ClimateZone 4, !- Name
  ,                                       !- Surface Rendering Name
  {96e1eb34-af32-4213-9aae-636098ad8ede}, !- Layer 1
  {3b5f26c5-fecb-4966-bf1d-4f8c9bf8b769}, !- Layer 2
  {89388b83-e2b4-4ee6-b647-d1b946ea82ac}, !- Layer 3
  {05902c64-f333-48ea-9dd9-d5a2325fec4c}; !- Layer 4

OS:StandardsInformation:Construction,
  {f3344b68-a488-47d5-b364-3caad10f614c}, !- Handle
  {ac7273b1-421f-4162-a514-fc06d0d5bab9}, !- Construction Name
  ExteriorWall,                           !- Intended Surface Type
  Mass;                                   !- Standards Construction Type

OS:Material,
  {89388b83-e2b4-4ee6-b647-d1b946ea82ac}, !- Handle
  Wall Insulation [37],                   !- Name
  MediumRough,                            !- Roughness
  0.0680999999999999,                     !- Thickness {m}
  0.0432,                                 !- Conductivity {W/m-K}
  91,                                     !- Density {kg/m3}
  836.999999999999,                       !- Specific Heat {J/kg-K}
  0.9,                                    !- Thermal Absorptance
  0.5,                                    !- Solar Absorptance
  0.5;                                    !- Visible Absorptance

OS:Construction,
  {b399d51c-9dc6-492a-ad4c-a7a83b007161}, !- Handle
  ASHRAE 189.1-2009 ExtWall Mass ClimateZone 5, !- Name
  ,                                       !- Surface Rendering Name
  {96e1eb34-af32-4213-9aae-636098ad8ede}, !- Layer 1
  {3b5f26c5-fecb-4966-bf1d-4f8c9bf8b769}, !- Layer 2
  {50f2d008-728f-49e3-9c92-b8181867b482}, !- Layer 3
  {05902c64-f333-48ea-9dd9-d5a2325fec4c}; !- Layer 4

OS:StandardsInformation:Construction,
  {1a91b623-e8bb-4704-9e94-051ddde9cfd6}, !- Handle
  {b399d51c-9dc6-492a-ad4c-a7a83b007161}, !- Construction Name
  ExteriorWall,                           !- Intended Surface Type
  Mass;                                   !- Standards Construction Type

OS:Material,
  {50f2d008-728f-49e3-9c92-b8181867b482}, !- Handle
  Wall Insulation [40],                   !- Name
  MediumRough,                            !- Roughness
  0.0793999999999999,                     !- Thickness {m}
  0.0432,                                 !- Conductivity {W/m-K}
  91,                                     !- Density {kg/m3}
  836.999999999999,                       !- Specific Heat {J/kg-K}
  0.9,                                    !- Thermal Absorptance
  0.5,                                    !- Solar Absorptance
  0.5;                                    !- Visible Absorptance

OS:Construction,
  {8a87a56f-626c-40b7-aa5e-7af252a136d0}, !- Handle
  ASHRAE 189.1-2009 ExtWall Mass ClimateZone 6, !- Name
  ,                                       !- Surface Rendering Name
  {96e1eb34-af32-4213-9aae-636098ad8ede}, !- Layer 1
  {3b5f26c5-fecb-4966-bf1d-4f8c9bf8b769}, !- Layer 2
  {30c3925b-ab98-4aa9-a2d0-1247eca3931f}, !- Layer 3
  {05902c64-f333-48ea-9dd9-d5a2325fec4c}; !- Layer 4

OS:StandardsInformation:Construction,
  {0ce5346f-5166-4c57-b3c4-fa86361c9922}, !- Handle
  {8a87a56f-626c-40b7-aa5e-7af252a136d0}, !- Construction Name
  ExteriorWall,                           !- Intended Surface Type
  Mass;                                   !- Standards Construction Type

OS:Material,
  {30c3925b-ab98-4aa9-a2d0-1247eca3931f}, !- Handle
  Wall Insulation [42],                   !- Name
  MediumRough,                            !- Roughness
  0.0913999999999999,                     !- Thickness {m}
  0.0432,                                 !- Conductivity {W/m-K}
  91,                                     !- Density {kg/m3}
  836.999999999999,                       !- Specific Heat {J/kg-K}
  0.9,                                    !- Thermal Absorptance
  0.5,                                    !- Solar Absorptance
  0.5;                                    !- Visible Absorptance

OS:Construction,
  {b35d37c9-f087-4fc5-a519-87fdca1a6480}, !- Handle
  ASHRAE 189.1-2009 ExtWall Mass ClimateZone 7-8, !- Name
  ,                                       !- Surface Rendering Name
  {96e1eb34-af32-4213-9aae-636098ad8ede}, !- Layer 1
  {3b5f26c5-fecb-4966-bf1d-4f8c9bf8b769}, !- Layer 2
  {22313904-89dc-437d-8c71-f3324542fbc6}, !- Layer 3
  {05902c64-f333-48ea-9dd9-d5a2325fec4c}; !- Layer 4

OS:StandardsInformation:Construction,
  {64ae40ed-f31c-477c-bdc7-1cca0b63e3a9}, !- Handle
  {b35d37c9-f087-4fc5-a519-87fdca1a6480}, !- Construction Name
  ExteriorWall,                           !- Intended Surface Type
  Mass;                                   !- Standards Construction Type

OS:Material,
  {22313904-89dc-437d-8c71-f3324542fbc6}, !- Handle
  Wall Insulation [44],                   !- Name
  MediumRough,                            !- Roughness
  0.1104,                                 !- Thickness {m}
  0.0432,                                 !- Conductivity {W/m-K}
  91,                                     !- Density {kg/m3}
  836.999999999999,                       !- Specific Heat {J/kg-K}
  0.9,                                    !- Thermal Absorptance
  0.5,                                    !- Solar Absorptance
  0.5;                                    !- Visible Absorptance

OS:Construction,
  {82ebf776-945b-43a0-9cbb-3bf6b8fee4a6}, !- Handle
  ASHRAE 189.1-2009 ExtWall Mass ClimateZone alt-res 1, !- Name
  ,                                       !- Surface Rendering Name
  {96e1eb34-af32-4213-9aae-636098ad8ede}, !- Layer 1
  {3b5f26c5-fecb-4966-bf1d-4f8c9bf8b769}, !- Layer 2
  {15e9e13c-f0c2-46e0-a2de-f2c081c364bd}, !- Layer 3
  {05902c64-f333-48ea-9dd9-d5a2325fec4c}; !- Layer 4

OS:StandardsInformation:Construction,
  {137ceb17-3901-4feb-924b-1eacce493eaa}, !- Handle
  {82ebf776-945b-43a0-9cbb-3bf6b8fee4a6}, !- Construction Name
  ExteriorWall,                           !- Intended Surface Type
  Mass;                                   !- Standards Construction Type

OS:Construction,
  {ace7e73d-ee63-4174-91c2-456963822cc4}, !- Handle
  ASHRAE 189.1-2009 ExtWall Mass ClimateZone alt-res 2, !- Name
  ,                                       !- Surface Rendering Name
  {96e1eb34-af32-4213-9aae-636098ad8ede}, !- Layer 1
  {3b5f26c5-fecb-4966-bf1d-4f8c9bf8b769}, !- Layer 2
  {803c361a-48ac-4846-9ef4-d46922f800c1}, !- Layer 3
  {05902c64-f333-48ea-9dd9-d5a2325fec4c}; !- Layer 4

OS:StandardsInformation:Construction,
  {6cddc8fb-9cd2-439f-8559-7aced6e95972}, !- Handle
  {ace7e73d-ee63-4174-91c2-456963822cc4}, !- Construction Name
  ExteriorWall,                           !- Intended Surface Type
  Mass;                                   !- Standards Construction Type

OS:Construction,
  {8ca69d4f-379d-409d-83f3-1c02de71836f}, !- Handle
  ASHRAE 189.1-2009 ExtWall Mass ClimateZone alt-res 3, !- Name
  ,                                       !- Surface Rendering Name
  {96e1eb34-af32-4213-9aae-636098ad8ede}, !- Layer 1
  {3b5f26c5-fecb-4966-bf1d-4f8c9bf8b769}, !- Layer 2
  {89388b83-e2b4-4ee6-b647-d1b946ea82ac}, !- Layer 3
  {05902c64-f333-48ea-9dd9-d5a2325fec4c}; !- Layer 4

OS:StandardsInformation:Construction,
  {8ce96780-8bb3-4266-ac0f-9e20c7a78a91}, !- Handle
  {8ca69d4f-379d-409d-83f3-1c02de71836f}, !- Construction Name
  ExteriorWall,                           !- Intended Surface Type
  Mass;                                   !- Standards Construction Type

OS:Construction,
  {7c718467-5120-4090-9170-b3ba0b2ab5b1}, !- Handle
  ASHRAE 189.1-2009 ExtWall Mass ClimateZone alt-res 4, !- Name
  ,                                       !- Surface Rendering Name
  {96e1eb34-af32-4213-9aae-636098ad8ede}, !- Layer 1
  {3b5f26c5-fecb-4966-bf1d-4f8c9bf8b769}, !- Layer 2
  {50f2d008-728f-49e3-9c92-b8181867b482}, !- Layer 3
  {05902c64-f333-48ea-9dd9-d5a2325fec4c}; !- Layer 4

OS:StandardsInformation:Construction,
  {a738ff91-170b-430b-bee0-01ae28cb0fc8}, !- Handle
  {7c718467-5120-4090-9170-b3ba0b2ab5b1}, !- Construction Name
  ExteriorWall,                           !- Intended Surface Type
  Mass;                                   !- Standards Construction Type

OS:Construction,
  {ba07b1f0-5167-4f4e-b4ee-63531ca9173c}, !- Handle
  ASHRAE 189.1-2009 ExtWall Mass ClimateZone alt-res 5, !- Name
  ,                                       !- Surface Rendering Name
  {96e1eb34-af32-4213-9aae-636098ad8ede}, !- Layer 1
  {3b5f26c5-fecb-4966-bf1d-4f8c9bf8b769}, !- Layer 2
  {30c3925b-ab98-4aa9-a2d0-1247eca3931f}, !- Layer 3
  {05902c64-f333-48ea-9dd9-d5a2325fec4c}; !- Layer 4

OS:StandardsInformation:Construction,
  {1027a5fa-1535-4e8d-9b9b-9f6e5aa788ab}, !- Handle
  {ba07b1f0-5167-4f4e-b4ee-63531ca9173c}, !- Construction Name
  ExteriorWall,                           !- Intended Surface Type
  Mass;                                   !- Standards Construction Type

OS:Construction,
  {88e83e2a-210f-4448-8629-d6972c449567}, !- Handle
  ASHRAE 189.1-2009 ExtWall Mass ClimateZone alt-res 6, !- Name
  ,                                       !- Surface Rendering Name
  {96e1eb34-af32-4213-9aae-636098ad8ede}, !- Layer 1
  {3b5f26c5-fecb-4966-bf1d-4f8c9bf8b769}, !- Layer 2
  {22313904-89dc-437d-8c71-f3324542fbc6}, !- Layer 3
  {05902c64-f333-48ea-9dd9-d5a2325fec4c}; !- Layer 4

OS:StandardsInformation:Construction,
  {6a67089c-f8bd-4791-93c9-3c039572c13c}, !- Handle
  {88e83e2a-210f-4448-8629-d6972c449567}, !- Construction Name
  ExteriorWall,                           !- Intended Surface Type
  Mass;                                   !- Standards Construction Type

OS:Construction,
  {ef752eb4-ad88-42d5-86d3-5d36cbf1956a}, !- Handle
  ASHRAE 189.1-2009 ExtWall Mass ClimateZone alt-res 7, !- Name
  ,                                       !- Surface Rendering Name
  {96e1eb34-af32-4213-9aae-636098ad8ede}, !- Layer 1
  {3b5f26c5-fecb-4966-bf1d-4f8c9bf8b769}, !- Layer 2
  {22313904-89dc-437d-8c71-f3324542fbc6}, !- Layer 3
  {05902c64-f333-48ea-9dd9-d5a2325fec4c}; !- Layer 4

OS:StandardsInformation:Construction,
  {b40656a1-1b52-4336-b419-0e02f3c3ad99}, !- Handle
  {ef752eb4-ad88-42d5-86d3-5d36cbf1956a}, !- Construction Name
  ExteriorWall,                           !- Intended Surface Type