
OS:Version,
  {0e37d365-d182-4919-9de1-2d98aa3dfed6}, !- Handle
  1.3.0;                                  !- Version Identifier

OS:Construction,
  {76080e0c-7448-4843-9f32-e46d99ecbad7}, !- Handle
  ASHRAE 189.1-2009 AtticFloor ClimateZone 1-8, !- Name
  ,                                       !- Surface Rendering Name
  {67f6c03e-97f5-4e72-a8aa-dd9c318063a8}, !- Layer 1
  {7da46bac-d317-4f8f-8a7f-04583e893fce}, !- Layer 2
  {67f6c03e-97f5-4e72-a8aa-dd9c318063a8}; !- Layer 3

OS:StandardsInformation:Construction,
  {bb00a7f3-5455-426f-a112-cf7141f2d21a}, !- Handle
  {76080e0c-7448-4843-9f32-e46d99ecbad7}, !- Construction Name
  AtticFloor,                             !- Intended Surface Type
  WoodFramed;                             !- Standards Construction Type

OS:Material,
  {67f6c03e-97f5-4e72-a8aa-dd9c318063a8}, !- Handle
  1/2IN Gypsum,                           !- Name
  Smooth,                                 !- Roughness
  0.0127,                                 !- Thickness {m}
  0.16,                                   !- Conductivity {W/m-K}
  784.9,                                  !- Density {kg/m3}
  830.000000000001,                       !- Specific Heat {J/kg-K}
  0.9,                                    !- Thermal Absorptance
  0.92,                                   !- Solar Absorptance
  0.92;                                   !- Visible Absorptance

OS:Material,
  {7da46bac-d317-4f8f-8a7f-04583e893fce}, !- Handle
  AtticFloor Insulation,                  !- Name
  MediumRough,                            !- Roughness
  0.2379,                                 !- Thickness {m}
  0.049,                                  !- Conductivity {W/m-K}
  265,                                    !- Density {kg/m3}
  836.800000000001,                       !- Specific Heat {J/kg-K}
  0.9,                                    !- Thermal Absorptance
  0.7,                                    !- Solar Absorptance
  0.7;                                    !- Visible Absorptance

OS:Construction,
  {81476883-9d9b-457f-8aa6-4ecc2a5322db}, !- Handle
  ASHRAE 189.1-2009 ExtRoof IEAD ClimateZone 1, !- Name
  ,                                       !- Surface Rendering Name
  {98841b5e-e7ca-4717-a885-9d2e187d3e0c}, !- Layer 1
  {bbf24fdb-c85e-4402-9540-7aeec61e26b3}, !- Layer 2
  {78e7c67a-a702-4368-8c85-2f6e8f435034}; !- Layer 3

OS:StandardsInformation:Construction,
  {d7da557f-1520-4c4d-a4a2-233d9e5487eb}, !- Handle
  {81476883-9d9b-457f-8aa6-4ecc2a5322db}, !- Construction Name
  ExteriorRoof,                           !- Intended Surface Type
  IEAD;                                   !- Standards Construction Type

OS:Material,
  {98841b5e-e7ca-4717-a885-9d2e187d3e0c}, !- Handle
  Roof Membrane,                          !- Name
  VeryRough,                              !- Roughness
  0.0095,                                 !- Thickness {m}
  0.16,                                   !- Conductivity {W/m-K}
  1121.29,                                !- Density {kg/m3}
  1460,                                   !- Specific Heat {J/kg-K}
  0.9,                                    !- Thermal Absorptance
  0.7,                                    !- Solar Absorptance
  0.7;                                    !- Visible Absorptance

OS:Material,
  {bbf24fdb-c85e-4402-9540-7aeec61e26b3}, !- Handle
  Roof Insulation [18],                   !- Name
  MediumRough,                            !- Roughness
  0.1693,                                 !- Thickness {m}
  0.049,                                  !- Conductivity {W/m-K}
  265,                                    !- Density {kg/m3}
  836.800000000001,                       !- Specific Heat {J/kg-K}
  0.9,                                    !- Thermal Absorptance
  0.7,                                    !- Solar Absorptance
  0.7;                                    !- Visible Absorptance

OS:Material,
  {78e7c67a-a702-4368-8c85-2f6e8f435034}, !- Handle
  Metal Decking,                          !- Name
  MediumSmooth,                           !- Roughness
  0.0015,                                 !- Thickness {m}
  45.006,                                 !- Conductivity {W/m-K}
  7680,                                   !- Density {kg/m3}
  418.4,                                  !- Specific Heat {J/kg-K}
  0.9,                                    !- Thermal Absorptance
  0.7,                                    !- Solar Absorptance
  0.3;                                    !- Visible Absorptance

OS:Construction,
  {c5c59dc0-3d09-478b-a1bb-f9faad1dc5b6}, !- Handle
  ASHRAE 189.1-2009 ExtRoof IEAD ClimateZone 2-5, !- Name
  ,                                       !- Surface Rendering Name
  {98841b5e-e7ca-4717-a885-9d2e187d3e0c}, !- Layer 1
  {c4567e9c-a271-4f23-a91e-2b3375b0e017}, !- Layer 2
  {78e7c67a-a702-4368-8c85-2f6e8f435034}; !- Layer 3

OS:StandardsInformation:Construction,
  {3d5c784f-2128-4e94-9486-608ad82d148f}, !- Handle
  {c5c59dc0-3d09-478b-a1bb-f9faad1dc5b6}, !- Construction Name
  ExteriorRoof,                           !- Intended Surface Type
  IEAD;                                   !- Standards Construction Type

OS:Material,
  {c4567e9c-a271-4f23-a91e-2b3375b0e017}, !- Handle
  Roof Insulation [21],                   !- Name
  MediumRough,                            !- Roughness
  0.2105,                                 !- Thickness {m}
  0.049,                                  !- Conductivity {W/m-K}
  265,                                    !- Density {kg/m3}
  836.800000000001,                       !- Specific Heat {J/kg-K}
  0.9,                                    !- Thermal Absorptance
  0.7,                                    !- Solar Absorptance
  0.7;                                    !- Visible Absorptance

OS:Construction,
  {c45faa0d-c5b4-47f0-8c79-a95786ddea83}, !- Handle
  ASHRAE 189.1-2009 ExtRoof IEAD ClimateZone 6, !- Name
  ,                                       !- Surface Rendering Name
  {98841b5e-e7ca-4717-a885-9d2e187d3e0c}, !- Layer 1
  {d444601a-3b5f-4c4c-b75b-857258214e79}, !- Layer 2
  {78e7c67a-a702-4368-8c85-2f6e8f435034}; !- Layer 3

OS:StandardsInformation:Construction,
  {3b938cbe-e264-4bbc-a82b-29d799156807}, !- Handle
  {c45faa0d-c5b4-47f0-8c79-a95786ddea83}, !- Construction Name
  ExteriorRoof,                           !- Intended Surface Type
  IEAD;                                   !- Standards Construction Type

OS:Material,
  {d444601a-3b5f-4c4c-b75b-857258214e79}, !- Handle
  Roof Insulation [24],                   !- Name
  MediumRough,                            !- Roughness
  0.260100000000001,                      !- Thickness {m}
  0.049,                                  !- Conductivity {W/m-K}
  265,                                    !- Density {kg/m3}
  836.800000000001,                       !- Specific Heat {J/kg-K}
  0.9,                                    !- Thermal Absorptance
  0.7,                                    !- Solar Absorptance
  0.7;                                    !- Visible Absorptance

OS:Construction,
  {eb071b44-f985-4105-a8e6-1a47c1ef1b89}, !- Handle
  ASHRAE 189.1-2009 ExtRoof IEAD ClimateZone 7-8, !- Name
  ,                                       !- Surface Rendering Name
  {98841b5e-e7ca-4717-a885-9d2e187d3e0c}, !- Layer 1
  {f1dfaf82-84fd-4819-9e99-a9b23dc40490}, !- Layer 2
  {78e7c67a-a702-4368-8c85-2f6e8f435034}; !- Layer 3

OS:StandardsInformation:Construction,
  {f837edbe-23f0-4bde-97d3-d6919e38c860}, !- Handle
  {eb071b44-f985-4105-a8e6-1a47c1ef1b89}, !- Construction Name
  ExteriorRoof,                           !- Intended Surface Type
  IEAD;                                   !- Standards Construction Type

OS:Material,
  {f1dfaf82-84fd-4819-9e99-a9b23dc40490}, !- Handle
  Roof Insulation [26],                   !- Name
  MediumRough,                            !- Roughness
  0.2941,                                 !- Thickness {m}
  0.049,                                  !- Conductivity {W/m-K}
  265,                                    !- Density {kg/m3}
  836.800000000001,                       !- Specific Heat {J/kg-K}
  0.9,                                    !- Thermal Absorptance
  0.7,                                    !- Solar Absorptance
  0.7;                                    !- Visible Absorptance

OS:Construction,
  {4f1087b2-0092-4099-8fe4-31bcdef57430}, !- Handle
  ASHRAE 189.1-2009 ExtRoof Metal ClimateZone 1, !- Name
  ,                                       !- Surface Rendering Name
  {c03fd2fd-8f54-4460-ac6d-9b2a532b8872}, !- Layer 1
  {3019e26a-35a0-4409-8cfa-c7187eb7ee4b}; !- Layer 2

OS:StandardsInformation:Construction,
  {050304b2-08d5-421d-bbe2-295f6f3f4f59}, !- Handle
  {4f1087b2-0092-4099-8fe4-31bcdef57430}, !- Construction Name
  ExteriorRoof,                           !- Intended Surface Type
  Metal;                                  !- Standards Construction Type

OS:Material,
  {c03fd2fd-8f54-4460-ac6d-9b2a532b8872}, !- Handle
  Metal Roofing,                          !- Name
  MediumSmooth,                           !- Roughness
  0.0015,                                 !- Thickness {m}
  45.006,                                 !- Conductivity {W/m-K}
  7680,                                   !- Density {kg/m3}
  418.4,                                  !- Specific Heat {J/kg-K}
  0.9,                                    !- Thermal Absorptance
  0.3,                                    !- Solar Absorptance
  0.3;                                    !- Visible Absorptance

OS:Material,
  {3019e26a-35a0-4409-8cfa-c7187eb7ee4b}, !- Handle
  Roof Insulation [19],                   !- Name
  MediumRough,                            !- Roughness
  0.1868,                                 !- Thickness {m}
  0.049,                                  !- Conductivity {W/m-K}
  265,                                    !- Density {kg/m3}
  836.800000000001,                       !- Specific Heat {J/kg-K}
  0.9,                                    !- Thermal Absorptance
  0.7,                                    !- Solar Absorptance
  0.7;                                    !- Visible Absorptance

OS:Construction,
  {724fdc44-c7ed-43aa-a4f2-d7f5bb5b580a}, !- Handle
  ASHRAE 189.1-2009 ExtRoof Metal ClimateZone 2-5, !- Name
  ,                                       !- Surface Rendering Name
  {c03fd2fd-8f54-4460-ac6d-9b2a532b8872}, !- Layer 1
  {8ff9cbcc-b6ed-498c-abd0-6cfb1855c944}; !- Layer 2

OS:StandardsInformation:Construction,
  {62c4f84f-4d76-4db9-8e42-f76a9e55e40e}, !- Handle
  {724fdc44-c7ed-43aa-a4f2-d7f5bb5b580a}, !- Construction Name
  ExteriorRoof,                           !- Intended Surface Type
  Metal;                                  !- Standards Construction Type

OS:Material,
  {8ff9cbcc-b6ed-498c-abd0-6cfb1855c944}, !- Handle
  Roof Insulation [22],                   !- Name
  MediumRough,                            !- Roughness
  0.2358,                                 !- Thickness {m}
  0.049,                                  !- Conductivity {W/m-K}
  265,                                    !- Density {kg/m3}
  836.800000000001,                       !- Specific Heat {J/kg-K}
  0.9,                                    !- Thermal Absorptance
  0.7,                                    !- Solar Absorptance
  0.7;                                    !- Visible Absorptance

OS:Construction,
  {a1a831ac-e9fc-466d-9d2e-bf1819ad9df4}, !- Handle
  ASHRAE 189.1-2009 ExtRoof Metal ClimateZone 6, !- Name
  ,                                       !- Surface Rendering Name
  {c03fd2fd-8f54-4460-ac6d-9b2a532b8872}, !- Layer 1
  {baed97d3-4a7e-4abc-9395-bab55a375e8c}; !- Layer 2

OS:StandardsInformation:Construction,
  {a96f7867-bf90-4557-aa3e-70cd17b792bf}, !- Handle
  {a1a831ac-e9fc-466d-9d2e-bf1819ad9df4}, !- Construction Name
  ExteriorRoof,                           !- Intended Surface Type
  Metal;                                  !- Standards Construction Type

OS:Material,
  {baed97d3-4a7e-4abc-9395-bab55a375e8c}, !- Handle
  Roof Insulation [25],                   !- Name
  MediumRough,                            !- Roughness
  0.263,                                  !- Thickness {m}
  0.049,                                  !- Conductivity {W/m-K}
  265,                                    !- Density {kg/m3}
  836.800000000001,                       !- Specific Heat {J/kg-K}
  0.9,                                    !- Thermal Absorptance
  0.7,                                    !- Solar Absorptance
  0.7;                                    !- Visible Absorptance

OS:Construction,
  {2f902a65-ea5b-4c0b-9807-820627cc2e71}, !- Handle
  ASHRAE 189.1-2009 ExtRoof Metal ClimateZone 7-8, !- Name
  ,                                       !- Surface Rendering Name
  {c03fd2fd-8f54-4460-ac6d-9b2a532b8872}, !- Layer 1
  {054fec35-933f-4f6b-992b-2621350894d5}; !- Layer 2

OS:StandardsInformation:Construction,
  {227db7e2-d463-4fc4-ab16-233f2cc5a720}, !- Handle
  {2f902a65-ea5b-4c0b-9807-820627cc2e71}, !- Construction Name
  ExteriorRoof,                           !- Intended Surface Type
  Metal;                                  !- Standards Construction Type

OS:Material,
  {054fec35-933f-4f6b-992b-2621350894d5}, !- Handle
  Roof Insulation [27],                   !- Name
  MediumRough,                            !- Roughness
  0.297000000000001,                      !- Thickness {m}
  0.049,                                  !- Conductivity {W/m-K}
  265,                                    !- Density {kg/m3}
  836.800000000001,                       !- Specific Heat {J/kg-K}
  0.9,                                    !- Thermal Absorptance
  0.7,                                    !- Solar Absorptance
  0.7;                                    !- Visible Absorptance

OS:Construction,
  {685da44a-3a5d-4910-bdaf-0d03d45c5b63}, !- Handle
  ASHRAE 189.1-2009 ExtWall Mass ClimateZone 1, !- Name
  ,                                       !- Surface Rendering Name
  {9d7859d1-27c1-41d8-9203-78d26aa99389}, !- Layer 1
  {6f6d75b4-38aa-42ca-90bb-e5af7898b37d}, !- Layer 2
  {edfc2f20-5b03-41ee-a8f2-aaf0f1883614}, !- Layer 3
  {67f6c03e-97f5-4e72-a8aa-dd9c318063a8}; !- Layer 4

OS:StandardsInformation:Construction,
  {ee727128-176e-477a-bd2b-28ef83944042}, !- Handle
  {685da44a-3a5d-4910-bdaf-0d03d45c5b63}, !- Construction Name
  ExteriorWall,                           !- Intended Surface Type
  Mass;                                   !- Standards Construction Type

OS:Material,
  {9d7859d1-27c1-41d8-9203-78d26aa99389}, !- Handle
  1IN Stucco,                             !- Name
  Smooth,                                 !- Roughness
  0.0253,                                 !- Thickness {m}
  0.691799999999999,                      !- Conductivity {W/m-K}
  1858,                                   !- Density {kg/m3}
  836.999999999999,                       !- Specific Heat {J/kg-K}
  0.9,                                    !- Thermal Absorptance
  0.92,                                   !- Solar Absorptance
  0.92;                                   !- Visible Absorptance

OS:Material,
  {6f6d75b4-38aa-42ca-90bb-e5af7898b37d}, !- Handle
  8IN Concrete HW,                        !- Name
  MediumRough,                            !- Roughness
  0.2033,                                 !- Thickness {m}
  1.72959999999999,                       !- Conductivity {W/m-K}
  2242.99999999999,                       !- Density {kg/m3}
  836.999999999999,                       !- Specific Heat {J/kg-K}
  0.9,                                    !- Thermal Absorptance
  0.65,                                   !- Solar Absorptance
  0.65;                                   !- Visible Absorptance

OS:Material,
  {edfc2f20-5b03-41ee-a8f2-aaf0f1883614}, !- Handle
  Wall Insulation [31],                   !- Name
  MediumRough,                            !- Roughness
  0.0337000000000001,                     !- Thickness {m}
  0.0432,                                 !- Conductivity {W/m-K}
  91,                                     !- Density {kg/m3}
  836.999999999999,                       !- Specific Heat {J/kg-K}
  0.9,                                    !- Thermal Absorptance
  0.5,                                    !- Solar Absorptance
  0.5;                                    !- Visible Absorptance

OS:Construction,
  {5a67e970-2ac3-4e3d-ba9d-3c139f5b4865}, !- Handle
  ASHRAE 189.1-2009 ExtWall Mass ClimateZone 2, !- Name
  ,                                       !- Surface Rendering Name
  {9d7859d1-27c1-41d8-9203-78d26aa99389}, !- Layer 1
  {6f6d75b4-38aa-42ca-90bb-e5af7898b37d}, !- Layer 2
  {51649cdf-d5ca-46f7-989d-b8e4edbfad47}, !- Layer 3
  {67f6c03e-97f5-4e72-a8aa-dd9c318063a8}; !- Layer 4

OS:StandardsInformation:Construction,
  {3b4ffe1f-a3c8-480f-82af-df217c5d3bc5}, !- Handle
  {5a67e970-2ac3-4e3d-ba9d-3c139f5b4865}, !- Construction Name
  ExteriorWall,                           !- Intended Surface Type
  Mass;                                   !- Standards Construction Type

OS:Material,
  {51649cdf-d5ca-46f7-989d-b8e4edbfad47}, !- Handle
  Wall Insulation [35],                   !- Name
  MediumRough,                            !- Roughness
  0.0452,                                 !- Thickness {m}
  0.0432,                                 !- Conductivity {W/m-K}
  91,                                     !- Density {kg/m3}
  836.999999999999,                       !- Specific Heat {J/kg-K}
  0.9,                                    !- Thermal Absorptance
  0.5,                                    !- Solar Absorptance
  0.5;                                    !- Visible Absorptance

OS:Construction,
  {d26ea0b7-584f-43a5-930f-072c4fefb67d}, !- Handle
  ASHRAE 189.1-2009 ExtWall Mass ClimateZone 3, !- Name
  ,                                       !- Surface Rendering Name
  {9d7859d1-27c1-41d8-9203-78d26aa99389}, !- Layer 1
  {6f6d75b4-38aa-42ca-90bb-e5af7898b37d}, !- Layer 2
  {5a81faf7-4f69-4847-a050-196de04b3415}, !- Layer 3
  {67f6c03e-97f5-4e72-a8aa-dd9c318063a8}; !- Layer 4

OS:StandardsInformation:Construction,
  {47b90527-9c37-426f-84ce-b10a14d0917d}, !- Handle
  {d26ea0b7-584f-43a5-930f-072c4fefb67d}, !- Construction Name
  ExteriorWall,                           !- Intended Surface Type
  Mass;                                   !- Standards Construction Type

OS:Material,
  {5a81faf7-4f69-4847-a050-196de04b3415}, !- Handle
  Wall Insulation [36],                   !- Name
  MediumRough,                            !- Roughness
  0.0565999999999999,                     !- Thickness {m}
  0.0432,                                 !- Conductivity {W/m-K}
  91,                                     !- Density {kg/m3}
  836.999999999999,                       !- Specific Heat {J/kg-K}
  0.9,                                    !- Thermal Absorptance
  0.5,                                    !- Solar Absorptance
  0.5;                                    !- Visible Absorptance

OS:Construction,
  {c83fbe12-cb90-417f-8ed1-879a53fbe5b6}, !- Handle
  ASHRAE 189.1-2009 ExtWall Mass ClimateZone 4, !- Name
  ,                                       !- Surface Rendering Name
  {9d7859d1-27c1-41d8-9203-78d26aa99389}, !- Layer 1
  {6f6d75b4-38aa-42ca-90bb-e5af7898b37d}, !- Layer 2
  {d8072895-223a-4e16-8bdb-218f5e1085fb}, !- Layer 3
  {67f6c03e-97f5-4e72-a8aa-dd9c318063a8}; !- Layer 4

OS:StandardsInformation:Construction,
  {a9941506-18e4-425d-a75e-9c7f861b6ce5}, !- Handle
  {c83fbe12-cb90-417f-8ed1-879a53fbe5b6}, !- Construction Name
  ExteriorWall,                           !- Intended Surface Type
  Mass;                                   !- Standards Construction Type

OS:Material,
  {d8072895-223a-4e16-8bdb-218f5e1085fb}, !- Handle
  Wall Insulation [37],                   !- Name
  MediumRough,                            !- Roughness
  0.0680999999999999,                     !- Thickness {m}
  0.0432,                                 !- Conductivity {W/m-K}
  91,                                     !- Density {kg/m3}
  836.999999999999,                       !- Specific Heat {J/kg-K}
  0.9,                                    !- Thermal Absorptance
  0.5,                                    !- Solar Absorptance
  0.5;                                    !- Visible Absorptance

OS:Construction,
  {a3add1de-7dd7-4423-951d-ba525bc68828}, !- Handle
  ASHRAE 189.1-2009 ExtWall Mass ClimateZone 5, !- Name
  ,                                       !- Surface Rendering Name
  {9d7859d1-27c1-41d8-9203-78d26aa99389}, !- Layer 1
  {6f6d75b4-38aa-42ca-90bb-e5af7898b37d}, !- Layer 2
  {42ac5000-88e7-4224-af99-390f3c859560}, !- Layer 3
  {67f6c03e-97f5-4e72-a8aa-dd9c318063a8}; !- Layer 4

OS:StandardsInformation:Construction,
  {e2f4c35a-6dc6-4ff5-b5dd-4a459f452794}, !- Handle
  {a3add1de-7dd7-4423-951d-ba525bc68828}, !- Construction Name
  ExteriorWall,                           !- Intended Surface Type
  Mass;                                   !- Standards Construction Type

OS:Material,
  {42ac5000-88e7-4224-af99-390f3c859560}, !- Handle
  Wall Insulation [40],                   !- Name
  MediumRough,                            !- Roughness
  0.0793999999999999,                     !- Thickness {m}
  0.0432,                                 !- Conductivity {W/m-K}
  91,                                     !- Density {kg/m3}
  836.999999999999,                       !- Specific Heat {J/kg-K}
  0.9,                                    !- Thermal Absorptance
  0.5,                                    !- Solar Absorptance
  0.5;                                    !- Visible Absorptance

OS:Construction,
  {550935dd-51eb-4c20-8001-0cb74e6966a6}, !- Handle
  ASHRAE 189.1-2009 ExtWall Mass ClimateZone 6, !- Name
  ,                                       !- Surface Rendering Name
  {9d7859d1-27c1-41d8-9203-78d26aa99389}, !- Layer 1
  {6f6d75b4-38aa-42ca-90bb-e5af7898b37d}, !- Layer 2
  {25f26840-efec-48b8-8264-7e3366b52de3}, !- Layer 3
  {67f6c03e-97f5-4e72-a8aa-dd9c318063a8}; !- Layer 4

OS:StandardsInformation:Construction,
  {32105798-3640-4dc6-aaa3-d450dd24ee55}, !- Handle
  {550935dd-51eb-4c20-8001-0cb74e6966a6}, !- Construction Name
  ExteriorWall,                           !- Intended Surface Type
  Mass;                                   !- Standards Construction Type

OS:Material,
  {25f26840-efec-48b8-8264-7e3366b52de3}, !- Handle
  Wall Insulation [42],                   !- Name
  MediumRough,                            !- Roughness
  0.0913999999999999,                     !- Thickness {m}
  0.0432,                                 !- Conductivity {W/m-K}
  91,                                     !- Density {kg/m3}
  836.999999999999,                       !- Specific Heat {J/kg-K}
  0.9,                                    !- Thermal Absorptance
  0.5,                                    !- Solar Absorptance
  0.5;                                    !- Visible Absorptance

OS:Construction,
  {7fdbd0eb-e3b0-4fdd-95e8-af773a9b0827}, !- Handle
  ASHRAE 189.1-2009 ExtWall Mass ClimateZone 7-8, !- Name
  ,                                       !- Surface Rendering Name
  {9d7859d1-27c1-41d8-9203-78d26aa99389}, !- Layer 1
  {6f6d75b4-38aa-42ca-90bb-e5af7898b37d}, !- Layer 2
  {194e0a4d-511a-4bd4-8f9d-f1c54c52ff00}, !- Layer 3
  {67f6c03e-97f5-4e72-a8aa-dd9c318063a8}; !- Layer 4

OS:StandardsInformation:Construction,
  {822daacb-63e3-44b5-ac26-6ff0faa86aaa}, !- Handle
  {7fdbd0eb-e3b0-4fdd-95e8-af773a9b0827}, !- Construction Name
  ExteriorWall,                           !- Intended Surface Type
  Mass;                                   !- Standards Construction Type

OS:Material,
  {194e0a4d-511a-4bd4-8f9d-f1c54c52ff00}, !- Handle
  Wall Insulation [44],                   !- Name
  MediumRough,                            !- Roughness
  0.1104,                                 !- Thickness {m}
  0.0432,                                 !- Conductivity {W/m-K}
  91,                                     !- Density {kg/m3}
  836.999999999999,                       !- Specific Heat {J/kg-K}
  0.9,                                    !- Thermal Absorptance
  0.5,                                    !- Solar Absorptance
  0.5;                                    !- Visible Absorptance

OS:Construction,
  {8e7cbeaa-ba6c-43d3-beaf-3786be35b928}, !- Handle
  ASHRAE 189.1-2009 ExtWall Mass ClimateZone alt-res 1, !- Name
  ,                                       !- Surface Rendering Name
  {9d7859d1-27c1-41d8-9203-78d26aa99389}, !- Layer 1
  {6f6d75b4-38aa-42ca-90bb-e5af7898b37d}, !- Layer 2
  {51649cdf-d5ca-46f7-989d-b8e4edbfad47}, !- Layer 3
  {67f6c03e-97f5-4e72-a8aa-dd9c318063a8}; !- Layer 4

OS:StandardsInformation:Construction,
  {dd7ed2fc-8fa0-4285-adc9-3a0012f2fc31}, !- Handle
  {8e7cbeaa-ba6c-43d3-beaf-3786be35b928}, !- Construction Name
  ExteriorWall,                           !- Intended Surface Type
  Mass;                                   !- Standards Construction Type

OS:Construction,
  {2a4b53f1-3ce4-4dcf-a7a9-4d36594e1f04}, !- Handle
  ASHRAE 189.1-2009 ExtWall Mass ClimateZone alt-res 2, !- Name
  ,                                       !- Surface Rendering Name
  {9d7859d1-27c1-41d8-9203-78d26aa99389}, !- Layer 1
  {6f6d75b4-38aa-42ca-90bb-e5af7898b37d}, !- Layer 2
  {5a81faf7-4f69-4847-a050-196de04b3415}, !- Layer 3
  {67f6c03e-97f5-4e72-a8aa-dd9c318063a8}; !- Layer 4

OS:StandardsInformation:Construction,
  {d4529dc5-d33e-4874-a322-7b69c0b4dab4}, !- Handle
  {2a4b53f1-3ce4-4dcf-a7a9-4d36594e1f04}, !- Construction Name
  ExteriorWall,                           !- Intended Surface Type
  Mass;                                   !- Standards Construction Type

OS:Construction,
  {e1df13bd-82f4-445d-a6f2-2c19f9c0fdbd}, !- Handle
  ASHRAE 189.1-2009 ExtWall Mass ClimateZone alt-res 3, !- Name
  ,                                       !- Surface Rendering Name
  {9d7859d1-27c1-41d8-9203-78d26aa99389}, !- Layer 1
  {6f6d75b4-38aa-42ca-90bb-e5af7898b37d}, !- Layer 2
  {d8072895-223a-4e16-8bdb-218f5e1085fb}, !- Layer 3
  {67f6c03e-97f5-4e72-a8aa-dd9c318063a8}; !- Layer 4

OS:StandardsInformation:Construction,
  {7d4cde54-f872-4ea6-95fd-10256ea0ea19}, !- Handle
  {e1df13bd-82f4-445d-a6f2-2c19f9c0fdbd}, !- Construction Name
  ExteriorWall,                           !- Intended Surface Type
  Mass;                                   !- Standards Construction Type

OS:Construction,
  {d88063c7-1157-4b9a-b95e-bf415b23e81a}, !- Handle
  ASHRAE 189.1-2009 ExtWall Mass ClimateZone alt-res 4, !- Name
  ,                                       !- Surface Rendering Name
  {9d7859d1-27c1-41d8-9203-78d26aa99389}, !- Layer 1
  {6f6d75b4-38aa-42ca-90bb-e5af7898b37d}, !- Layer 2
  {42ac5000-88e7-4224-af99-390f3c859560}, !- Layer 3
  {67f6c03e-97f5-4e72-a8aa-dd9c318063a8}; !- Layer 4

OS:StandardsInformation:Construction,
  {ec0f6896-b562-4ac4-9161-adc46394116e}, !- Handle
  {d88063c7-1157-4b9a-b95e-bf415b23e81a}, !- Construction Name
  ExteriorWall,                           !- Intended Surface Type
  Mass;                                   !- Standards Construction Type

OS:Construction,
  {1b7f21d3-4327-4042-a92d-2d3fd501bdcd}, !- Handle
  ASHRAE 189.1-2009 ExtWall Mass ClimateZone alt-res 5, !- Name
  ,                                       !- Surface Rendering Name
  {9d7859d1-27c1-41d8-9203-78d26aa99389}, !- Layer 1
  {6f6d75b4-38aa-42ca-90bb-e5af7898b37d}, !- Layer 2
  {25f26840-efec-48b8-8264-7e3366b52de3}, !- Layer 3
  {67f6c03e-97f5-4e72-a8aa-dd9c318063a8}; !- Layer 4

OS:StandardsInformation:Construction,
  {0e8fc6c4-1e84-4a26-9344-8e068fb80614}, !- Handle
  {1b7f21d3-4327-4042-a92d-2d3fd501bdcd}, !- Construction Name
  ExteriorWall,                           !- Intended Surface Type
  Mass;                                   !- Standards Construction Type

OS:Construction,
  {93a71535-c412-4733-9012-d497982d8e00}, !- Handle
  ASHRAE 189.1-2009 ExtWall Mass ClimateZone alt-res 6, !- Name
  ,                                       !- Surface Rendering Name
  {9d7859d1-27c1-41d8-9203-78d26aa99389}, !- Layer 1
  {6f6d75b4-38aa-42ca-90bb-e5af7898b37d}, !- Layer 2
  {194e0a4d-511a-4bd4-8f9d-f1c54c52ff00}, !- Layer 3
  {67f6c03e-97f5-4e72-a8aa-dd9c318063a8}; !- Layer 4

OS:StandardsInformation:Construction,
  {cb0ecb2a-7c49-43b5-b045-2ebfc99ff53f}, !- Handle
  {93a71535-c412-4733-9012-d497982d8e00}, !- Construction Name
  ExteriorWall,                           !- Intended Surface Type
  Mass;                                   !- Standards Construction Type

OS:Construction,
  {cd2667d5-9fdf-4e3f-877b-6d2aeb9a6d7a}, !- Handle
  ASHRAE 189.1-2009 ExtWall Mass ClimateZone alt-res 7, !- Name
  ,                                       !- Surface Rendering Name
  {9d7859d1-27c1-41d8-9203-78d26aa99389}, !- Layer 1
  {6f6d75b4-38aa-42ca-90bb-e5af7898b37d}, !- Layer 2
  {194e0a4d-511a-4bd4-8f9d-f1c54c52ff00}, !- Layer 3
  {67f6c03e-97f5-4e72-a8aa-dd9c318063a8}; !- Layer 4

OS:StandardsInformation:Construction,
  {f7ac115c-621f-4e13-9b67-2f9b415b1302}, !- Handle
  {cd2667d5-9fdf-4e3f-877b-6d2aeb9a6d7a}, !- Construction Name
  ExteriorWall,                           !- Intended Surface Type
  Mass;                                   !- Standards Construction Type

OS:Construction,
  {98468823-6c5e-4dd8-8e77-e98cdc29f376}, !- Handle
  ASHRAE 189.1-2009 ExtWall Mass ClimateZone alt-res 8, !- Name