
OS:Version,
  {89acd202-8c7f-44db-bd66-670b780ef14e}, !- Handle
  2.3.0;                                  !- Version Identifier

OS:Construction,
  {93b424ba-ac05-4e91-80f6-02871d741051}, !- Handle
  ASHRAE 189.1-2009 AtticFloor ClimateZone 1-8, !- Name
  ,                                       !- Surface Rendering Name
  {b67ba9d4-1320-4b16-8747-25c3fec153f3}, !- Layer 1
  {1f8d95a2-be0b-47aa-9e4c-5b049834e48a}, !- Layer 2
  {b67ba9d4-1320-4b16-8747-25c3fec153f3}; !- Layer 3

OS:StandardsInformation:Construction,
  {137c7c9b-6b4f-4caa-a85d-887a80da0c00}, !- Handle
  {93b424ba-ac05-4e91-80f6-02871d741051}, !- Construction Name
  AtticFloor,                             !- Intended Surface Type
  WoodFramed,                             !- Standards Construction Type
  ,                                       !- Perturbable Layer
  ,                                       !- Perturbable Layer Type
  ,                                       !- Other Perturbable Layer Type
  ASHRAE 189.1-2009;                      !- Construction Standard

OS:Material,
  {b67ba9d4-1320-4b16-8747-25c3fec153f3}, !- Handle
  1/2IN Gypsum,                           !- Name
  Smooth,                                 !- Roughness
  0.0127,                                 !- Thickness {m}
  0.16,                                   !- Conductivity {W/m-K}
  784.9,                                  !- Density {kg/m3}
  830.000000000001,                       !- Specific Heat {J/kg-K}
  0.9,                                    !- Thermal Absorptance
  0.4,                                    !- Solar Absorptance
  0.4;                                    !- Visible Absorptance

OS:StandardsInformation:Material,
  {728344b2-1e4c-47fa-b90c-20878be48e54}, !- Handle
  {b67ba9d4-1320-4b16-8747-25c3fec153f3}; !- Material Name

OS:Material,
  {1f8d95a2-be0b-47aa-9e4c-5b049834e48a}, !- Handle
  AtticFloor Insulation,                  !- Name
  MediumRough,                            !- Roughness
  0.2379,                                 !- Thickness {m}
  0.049,                                  !- Conductivity {W/m-K}
  265,                                    !- Density {kg/m3}
  836.800000000001,                       !- Specific Heat {J/kg-K}
  0.9,                                    !- Thermal Absorptance
  0.7,                                    !- Solar Absorptance
  0.7;                                    !- Visible Absorptance

OS:StandardsInformation:Material,
  {e6a926e5-aca7-43a4-b407-3e2ee24dc81d}, !- Handle
  {1f8d95a2-be0b-47aa-9e4c-5b049834e48a}; !- Material Name

OS:Construction,
  {038781e3-c519-4544-a6af-8ffe2c2592e3}, !- Handle
  ASHRAE 189.1-2009 ExtRoof IEAD ClimateZone 1, !- Name
  ,                                       !- Surface Rendering Name
  {104bb872-104b-4a06-a733-550e65f69521}, !- Layer 1
  {4154f52d-bb2b-47cd-828a-f407292d4370}, !- Layer 2
  {74aa186b-c39c-477d-b0a9-47715e71c3ee}; !- Layer 3

OS:StandardsInformation:Construction,
  {480a9b5c-dcb5-4bbf-adee-a3888353004c}, !- Handle
  {038781e3-c519-4544-a6af-8ffe2c2592e3}, !- Construction Name
  ExteriorRoof,                           !- Intended Surface Type
  IEAD,                                   !- Standards Construction Type
  ,                                       !- Perturbable Layer
  ,                                       !- Perturbable Layer Type
  ,                                       !- Other Perturbable Layer Type
  ASHRAE 189.1-2009;                      !- Construction Standard

OS:Material,
  {104bb872-104b-4a06-a733-550e65f69521}, !- Handle
  Roof Membrane,                          !- Name
  VeryRough,                              !- Roughness
  0.0095,                                 !- Thickness {m}
  0.16,                                   !- Conductivity {W/m-K}
  1121.29,                                !- Density {kg/m3}
  1460,                                   !- Specific Heat {J/kg-K}
  0.9,                                    !- Thermal Absorptance
  0.7,                                    !- Solar Absorptance
  0.7;                                    !- Visible Absorptance

OS:StandardsInformation:Material,
  {0cca7f5e-0c1c-4583-a168-fa282778dc00}, !- Handle
  {104bb872-104b-4a06-a733-550e65f69521}; !- Material Name

OS:Material,
  {4154f52d-bb2b-47cd-828a-f407292d4370}, !- Handle
  Roof Insulation [18],                   !- Name
  MediumRough,                            !- Roughness
  0.1693,                                 !- Thickness {m}
  0.049,                                  !- Conductivity {W/m-K}
  265,                                    !- Density {kg/m3}
  836.800000000001,                       !- Specific Heat {J/kg-K}
  0.9,                                    !- Thermal Absorptance
  0.7,                                    !- Solar Absorptance
  0.7;                                    !- Visible Absorptance

OS:StandardsInformation:Material,
  {9e67418d-8205-4f4f-a32f-bb41aadda46c}, !- Handle
  {4154f52d-bb2b-47cd-828a-f407292d4370}; !- Material Name

OS:Material,
  {74aa186b-c39c-477d-b0a9-47715e71c3ee}, !- Handle
  Metal Decking,                          !- Name
  MediumSmooth,                           !- Roughness
  0.0015,                                 !- Thickness {m}
  45.006,                                 !- Conductivity {W/m-K}
  7680,                                   !- Density {kg/m3}
  418.4,                                  !- Specific Heat {J/kg-K}
  0.9,                                    !- Thermal Absorptance
  0.6,                                    !- Solar Absorptance
  0.6;                                    !- Visible Absorptance

OS:StandardsInformation:Material,
  {878dea14-f50a-4c56-9cfc-0e6701433904}, !- Handle
  {74aa186b-c39c-477d-b0a9-47715e71c3ee}; !- Material Name

OS:Construction,
  {a240538e-68ed-4b17-9bc2-35f94de51974}, !- Handle
  ASHRAE 189.1-2009 ExtRoof IEAD ClimateZone 2-5, !- Name
  ,                                       !- Surface Rendering Name
  {104bb872-104b-4a06-a733-550e65f69521}, !- Layer 1
  {1e1a60d1-ad12-4828-b3f1-afe387078c92}, !- Layer 2
  {74aa186b-c39c-477d-b0a9-47715e71c3ee}; !- Layer 3

OS:StandardsInformation:Construction,
  {e64f6af3-5580-43c0-a3e0-041e464f6271}, !- Handle
  {a240538e-68ed-4b17-9bc2-35f94de51974}, !- Construction Name
  ExteriorRoof,                           !- Intended Surface Type
  IEAD,                                   !- Standards Construction Type
  ,                                       !- Perturbable Layer
  ,                                       !- Perturbable Layer Type
  ,                                       !- Other Perturbable Layer Type
  ASHRAE 189.1-2009;                      !- Construction Standard

OS:Material,
  {1e1a60d1-ad12-4828-b3f1-afe387078c92}, !- Handle
  Roof Insulation [21],                   !- Name
  MediumRough,                            !- Roughness
  0.2105,                                 !- Thickness {m}
  0.049,                                  !- Conductivity {W/m-K}
  265,                                    !- Density {kg/m3}
  836.800000000001,                       !- Specific Heat {J/kg-K}
  0.9,                                    !- Thermal Absorptance
  0.7,                                    !- Solar Absorptance
  0.7;                                    !- Visible Absorptance

OS:StandardsInformation:Material,
  {6132c356-05f2-40ac-8be0-59ecd850d275}, !- Handle
  {1e1a60d1-ad12-4828-b3f1-afe387078c92}; !- Material Name

OS:Construction,
  {b3d6aa9b-b8a5-47c1-9f88-1380801874b1}, !- Handle
  ASHRAE 189.1-2009 ExtRoof IEAD ClimateZone 6, !- Name
  ,                                       !- Surface Rendering Name
  {104bb872-104b-4a06-a733-550e65f69521}, !- Layer 1
  {a8d10d1e-5611-4f65-8c7a-a13db0cdb4d6}, !- Layer 2
  {74aa186b-c39c-477d-b0a9-47715e71c3ee}; !- Layer 3

OS:StandardsInformation:Construction,
  {6db9e161-edcb-40cf-ae4e-fd7c77275446}, !- Handle
  {b3d6aa9b-b8a5-47c1-9f88-1380801874b1}, !- Construction Name
  ExteriorRoof,                           !- Intended Surface Type
  IEAD,                                   !- Standards Construction Type
  ,                                       !- Perturbable Layer
  ,                                       !- Perturbable Layer Type
  ,                                       !- Other Perturbable Layer Type
  ASHRAE 189.1-2009;                      !- Construction Standard

OS:Material,
  {a8d10d1e-5611-4f65-8c7a-a13db0cdb4d6}, !- Handle
  Roof Insulation [24],                   !- Name
  MediumRough,                            !- Roughness
  0.260100000000001,                      !- Thickness {m}
  0.049,                                  !- Conductivity {W/m-K}
  265,                                    !- Density {kg/m3}
  836.800000000001,                       !- Specific Heat {J/kg-K}
  0.9,                                    !- Thermal Absorptance
  0.7,                                    !- Solar Absorptance
  0.7;                                    !- Visible Absorptance

OS:StandardsInformation:Material,
  {9d9b3016-06d2-48e4-81b2-36acfd78312a}, !- Handle
  {a8d10d1e-5611-4f65-8c7a-a13db0cdb4d6}; !- Material Name

OS:Construction,
  {b99f9c3e-a971-4bd1-9713-3663258441d4}, !- Handle
  ASHRAE 189.1-2009 ExtRoof IEAD ClimateZone 7-8, !- Name
  ,                                       !- Surface Rendering Name
  {104bb872-104b-4a06-a733-550e65f69521}, !- Layer 1
  {d0b4e83c-50cd-4daa-80c6-d2de771f2a36}, !- Layer 2
  {74aa186b-c39c-477d-b0a9-47715e71c3ee}; !- Layer 3

OS:StandardsInformation:Construction,
  {f3bf1526-02fd-426d-bfbd-d864a03fd24b}, !- Handle
  {b99f9c3e-a971-4bd1-9713-3663258441d4}, !- Construction Name
  ExteriorRoof,                           !- Intended Surface Type
  IEAD,                                   !- Standards Construction Type
  ,                                       !- Perturbable Layer
  ,                                       !- Perturbable Layer Type
  ,                                       !- Other Perturbable Layer Type
  ASHRAE 189.1-2009;                      !- Construction Standard

OS:Material,
  {d0b4e83c-50cd-4daa-80c6-d2de771f2a36}, !- Handle
  Roof Insulation [26],                   !- Name
  MediumRough,                            !- Roughness
  0.2941,                                 !- Thickness {m}
  0.049,                                  !- Conductivity {W/m-K}
  265,                                    !- Density {kg/m3}
  836.800000000001,                       !- Specific Heat {J/kg-K}
  0.9,                                    !- Thermal Absorptance
  0.7,                                    !- Solar Absorptance
  0.7;                                    !- Visible Absorptance

OS:StandardsInformation:Material,
  {10a704f1-22de-4a05-9637-8038e497bf94}, !- Handle
  {d0b4e83c-50cd-4daa-80c6-d2de771f2a36}; !- Material Name

OS:Construction,
  {276f97ba-06d8-4581-a8c8-96587f8055c6}, !- Handle
  ASHRAE 189.1-2009 ExtRoof Metal ClimateZone 1, !- Name
  ,                                       !- Surface Rendering Name
  {02f8c7af-b22c-4fc4-9aac-3b9a631ad216}, !- Layer 1
  {8e650547-6f80-4edd-b77f-d1a2d60da236}, !- Layer 2
  {74aa186b-c39c-477d-b0a9-47715e71c3ee}; !- Layer 3

OS:StandardsInformation:Construction,
  {0344b952-fabc-46cf-a7b3-ca19ff463dce}, !- Handle
  {276f97ba-06d8-4581-a8c8-96587f8055c6}, !- Construction Name
  ExteriorRoof,                           !- Intended Surface Type
  Metal,                                  !- Standards Construction Type
  ,                                       !- Perturbable Layer
  ,                                       !- Perturbable Layer Type
  ,                                       !- Other Perturbable Layer Type
  ASHRAE 189.1-2009;                      !- Construction Standard

OS:Material,
  {02f8c7af-b22c-4fc4-9aac-3b9a631ad216}, !- Handle
  Metal Roofing,                          !- Name
  MediumSmooth,                           !- Roughness
  0.0015,                                 !- Thickness {m}
  45.006,                                 !- Conductivity {W/m-K}
  7680,                                   !- Density {kg/m3}
  418.4,                                  !- Specific Heat {J/kg-K}
  0.9,                                    !- Thermal Absorptance
  0.6,                                    !- Solar Absorptance
  0.6;                                    !- Visible Absorptance

OS:StandardsInformation:Material,
  {8a041307-37ba-41ae-ab7b-eb2e7c67dee3}, !- Handle
  {02f8c7af-b22c-4fc4-9aac-3b9a631ad216}; !- Material Name

OS:Material,
  {8e650547-6f80-4edd-b77f-d1a2d60da236}, !- Handle
  Roof Insulation [19],                   !- Name
  MediumRough,                            !- Roughness
  0.1868,                                 !- Thickness {m}
  0.049,                                  !- Conductivity {W/m-K}
  265,                                    !- Density {kg/m3}
  836.800000000001,                       !- Specific Heat {J/kg-K}
  0.9,                                    !- Thermal Absorptance
  0.7,                                    !- Solar Absorptance
  0.7;                                    !- Visible Absorptance

OS:StandardsInformation:Material,
  {d515950c-2e78-4227-86e3-71a15eb3a2c3}, !- Handle
  {8e650547-6f80-4edd-b77f-d1a2d60da236}; !- Material Name

OS:Construction,
  {0b2f5ca8-c0de-484f-9d32-d3d8f3d18962}, !- Handle
  ASHRAE 189.1-2009 ExtRoof Metal ClimateZone 2-5, !- Name
  ,                                       !- Surface Rendering Name
  {02f8c7af-b22c-4fc4-9aac-3b9a631ad216}, !- Layer 1
  {c4b2c3c0-f790-428e-af99-1fb55d13b890}, !- Layer 2
  {74aa186b-c39c-477d-b0a9-47715e71c3ee}; !- Layer 3

OS:StandardsInformation:Construction,
  {6fa26f6d-61a7-41aa-b883-86beb3b026a7}, !- Handle
  {0b2f5ca8-c0de-484f-9d32-d3d8f3d18962}, !- Construction Name
  ExteriorRoof,                           !- Intended Surface Type
  Metal,                                  !- Standards Construction Type
  ,                                       !- Perturbable Layer
  ,                                       !- Perturbable Layer Type
  ,                                       !- Other Perturbable Layer Type
  ASHRAE 189.1-2009;                      !- Construction Standard

OS:Material,
  {c4b2c3c0-f790-428e-af99-1fb55d13b890}, !- Handle
  Roof Insulation [22],                   !- Name
  MediumRough,                            !- Roughness
  0.2358,                                 !- Thickness {m}
  0.049,                                  !- Conductivity {W/m-K}
  265,                                    !- Density {kg/m3}
  836.800000000001,                       !- Specific Heat {J/kg-K}
  0.9,                                    !- Thermal Absorptance
  0.7,                                    !- Solar Absorptance
  0.7;                                    !- Visible Absorptance

OS:StandardsInformation:Material,
  {124d0b4d-7562-4c65-9dd8-cfb8ff93891d}, !- Handle
  {c4b2c3c0-f790-428e-af99-1fb55d13b890}; !- Material Name

OS:Construction,
  {d1fac3f9-e1e7-4f67-a832-d790a474c66d}, !- Handle
  ASHRAE 189.1-2009 ExtRoof Metal ClimateZone 6, !- Name
  ,                                       !- Surface Rendering Name
  {02f8c7af-b22c-4fc4-9aac-3b9a631ad216}, !- Layer 1
  {699bd216-be4b-4314-91cf-8a5a9c8758d6}, !- Layer 2
  {74aa186b-c39c-477d-b0a9-47715e71c3ee}; !- Layer 3

OS:StandardsInformation:Construction,
  {56202284-d3fb-45de-8d02-e294e6237cd5}, !- Handle
  {d1fac3f9-e1e7-4f67-a832-d790a474c66d}, !- Construction Name
  ExteriorRoof,                           !- Intended Surface Type
  Metal,                                  !- Standards Construction Type
  ,                                       !- Perturbable Layer
  ,                                       !- Perturbable Layer Type
  ,                                       !- Other Perturbable Layer Type
  ASHRAE 189.1-2009;                      !- Construction Standard

OS:Material,
  {699bd216-be4b-4314-91cf-8a5a9c8758d6}, !- Handle
  Roof Insulation [25],                   !- Name
  MediumRough,                            !- Roughness
  0.263,                                  !- Thickness {m}
  0.049,                                  !- Conductivity {W/m-K}
  265,                                    !- Density {kg/m3}
  836.800000000001,                       !- Specific Heat {J/kg-K}
  0.9,                                    !- Thermal Absorptance
  0.7,                                    !- Solar Absorptance
  0.7;                                    !- Visible Absorptance

OS:StandardsInformation:Material,
  {e7bf6759-dee2-4d23-82f6-ef86680e2d7c}, !- Handle
  {699bd216-be4b-4314-91cf-8a5a9c8758d6}; !- Material Name

OS:Construction,
  {0dff8d96-57ec-40c5-b772-c20b6c8f3a85}, !- Handle
  ASHRAE 189.1-2009 ExtRoof Metal ClimateZone 7-8, !- Name
  ,                                       !- Surface Rendering Name
  {02f8c7af-b22c-4fc4-9aac-3b9a631ad216}, !- Layer 1
  {783896f5-fcae-4a7b-8e30-863b1c1c8d85}, !- Layer 2
  {74aa186b-c39c-477d-b0a9-47715e71c3ee}; !- Layer 3

OS:StandardsInformation:Construction,
  {acdda81f-b0c7-4677-8cae-18bd97c08f74}, !- Handle
  {0dff8d96-57ec-40c5-b772-c20b6c8f3a85}, !- Construction Name
  ExteriorRoof,                           !- Intended Surface Type
  Metal,                                  !- Standards Construction Type
  ,                                       !- Perturbable Layer
  ,                                       !- Perturbable Layer Type
  ,                                       !- Other Perturbable Layer Type
  ASHRAE 189.1-2009;                      !- Construction Standard

OS:Material,
  {783896f5-fcae-4a7b-8e30-863b1c1c8d85}, !- Handle
  Roof Insulation [27],                   !- Name
  MediumRough,                            !- Roughness
  0.297000000000001,                      !- Thickness {m}
  0.049,                                  !- Conductivity {W/m-K}
  265,                                    !- Density {kg/m3}
  836.800000000001,                       !- Specific Heat {J/kg-K}
  0.9,                                    !- Thermal Absorptance
  0.7,                                    !- Solar Absorptance
  0.7;                                    !- Visible Absorptance

OS:StandardsInformation:Material,
  {88e028d7-5f0a-4095-ae0f-2b0c9518bf85}, !- Handle
  {783896f5-fcae-4a7b-8e30-863b1c1c8d85}; !- Material Name

OS:Construction,
  {bc7d867b-6e94-4763-86b5-6a3409d3d5cc}, !- Handle
  ASHRAE 189.1-2009 ExtWall Mass ClimateZone 1, !- Name
  ,                                       !- Surface Rendering Name
  {064df3f1-22e3-4900-9d8b-c68ebd89fbed}, !- Layer 1
  {5769c31a-a2f6-4cfc-9958-bd9bac4f928a}, !- Layer 2
  {4f380906-b95a-45cd-bc77-0b6a84548fa5}, !- Layer 3
  {b67ba9d4-1320-4b16-8747-25c3fec153f3}; !- Layer 4

OS:StandardsInformation:Construction,
  {5293dc7a-803d-4f16-a615-980a74a349b2}, !- Handle
  {bc7d867b-6e94-4763-86b5-6a3409d3d5cc}, !- Construction Name
  ExteriorWall,                           !- Intended Surface Type
  Mass,                                   !- Standards Construction Type
  ,                                       !- Perturbable Layer
  ,                                       !- Perturbable Layer Type
  ,                                       !- Other Perturbable Layer Type
  ASHRAE 189.1-2009;                      !- Construction Standard

OS:Material,
  {064df3f1-22e3-4900-9d8b-c68ebd89fbed}, !- Handle
  1IN Stucco,                             !- Name
  Smooth,                                 !- Roughness
  0.0253,                                 !- Thickness {m}
  0.691799999999999,                      !- Conductivity {W/m-K}
  1858,                                   !- Density {kg/m3}
  836.999999999999,                       !- Specific Heat {J/kg-K}
  0.9,                                    !- Thermal Absorptance
  0.92,                                   !- Solar Absorptance
  0.92;                                   !- Visible Absorptance

OS:StandardsInformation:Material,
  {a6504acd-2621-4d82-b1c2-8ead434ecada}, !- Handle
  {064df3f1-22e3-4900-9d8b-c68ebd89fbed}; !- Material Name

OS:Material,
  {5769c31a-a2f6-4cfc-9958-bd9bac4f928a}, !- Handle
  8IN Concrete HW,                        !- Name
  MediumRough,                            !- Roughness
  0.2033,                                 !- Thickness {m}
  1.72959999999999,                       !- Conductivity {W/m-K}
  2242.99999999999,                       !- Density {kg/m3}
  836.999999999999,                       !- Specific Heat {J/kg-K}
  0.9,                                    !- Thermal Absorptance
  0.65,                                   !- Solar Absorptance
  0.65;                                   !- Visible Absorptance

OS:StandardsInformation:Material,
  {214aff40-595f-4fbf-99cb-013eaabb3336}, !- Handle
  {5769c31a-a2f6-4cfc-9958-bd9bac4f928a}; !- Material Name

OS:Material,
  {4f380906-b95a-45cd-bc77-0b6a84548fa5}, !- Handle
  Wall Insulation [31],                   !- Name
  MediumRough,                            !- Roughness
  0.0337000000000001,                     !- Thickness {m}
  0.0432,                                 !- Conductivity {W/m-K}
  91,                                     !- Density {kg/m3}
  836.999999999999,                       !- Specific Heat {J/kg-K}
  0.9,                                    !- Thermal Absorptance
  0.5,                                    !- Solar Absorptance
  0.5;                                    !- Visible Absorptance

OS:StandardsInformation:Material,
  {c8774b72-12df-4d6e-849c-15973552e0de}, !- Handle
  {4f380906-b95a-45cd-bc77-0b6a84548fa5}; !- Material Name

OS:Construction,
  {9719cdde-0fb0-4ca1-9561-4d649176094a}, !- Handle
  ASHRAE 189.1-2009 ExtWall Mass ClimateZone 2, !- Name
  ,                                       !- Surface Rendering Name
  {064df3f1-22e3-4900-9d8b-c68ebd89fbed}, !- Layer 1
  {5769c31a-a2f6-4cfc-9958-bd9bac4f928a}, !- Layer 2
  {a504a4bd-e4b7-4c29-8298-2bff78584870}, !- Layer 3
  {b67ba9d4-1320-4b16-8747-25c3fec153f3}; !- Layer 4

OS:StandardsInformation:Construction,
  {e11f9065-5626-48cf-b59e-f2e9f1389ddb}, !- Handle
  {9719cdde-0fb0-4ca1-9561-4d649176094a}, !- Construction Name
  ExteriorWall,                           !- Intended Surface Type
  Mass,                                   !- Standards Construction Type
  ,                                       !- Perturbable Layer
  ,                                       !- Perturbable Layer Type
  ,                                       !- Other Perturbable Layer Type
  ASHRAE 189.1-2009;                      !- Construction Standard

OS:Material,
  {a504a4bd-e4b7-4c29-8298-2bff78584870}, !- Handle
  Wall Insulation [35],                   !- Name
  MediumRough,                            !- Roughness
  0.0452,                                 !- Thickness {m}
  0.0432,                                 !- Conductivity {W/m-K}
  91,                                     !- Density {kg/m3}
  836.999999999999,                       !- Specific Heat {J/kg-K}
  0.9,                                    !- Thermal Absorptance
  0.5,                                    !- Solar Absorptance
  0.5;                                    !- Visible Absorptance

OS:StandardsInformation:Material,
  {fc3c5fda-2132-48de-8ee0-d48a0705f48f}, !- Handle
  {a504a4bd-e4b7-4c29-8298-2bff78584870}; !- Material Name

OS:Construction,
  {fc37e9cb-036c-4324-ae27-ba729df0b87a}, !- Handle
  ASHRAE 189.1-2009 ExtWall Mass ClimateZone 3, !- Name
  ,                                       !- Surface Rendering Name
  {064df3f1-22e3-4900-9d8b-c68ebd89fbed}, !- Layer 1
  {5769c31a-a2f6-4cfc-9958-bd9bac4f928a}, !- Layer 2
  {1379fa5b-5805-4538-b469-a8de54c570bd}, !- Layer 3
  {b67ba9d4-1320-4b16-8747-25c3fec153f3}; !- Layer 4

OS:StandardsInformation:Construction,
  {d10af58d-89ea-4063-aa11-4f232b4c02bd}, !- Handle
  {fc37e9cb-036c-4324-ae27-ba729df0b87a}, !- Construction Name
  ExteriorWall,                           !- Intended Surface Type
  Mass,                                   !- Standards Construction Type
  ,                                       !- Perturbable Layer
  ,                                       !- Perturbable Layer Type
  ,                                       !- Other Perturbable Layer Type
  ASHRAE 189.1-2009;                      !- Construction Standard

OS:Material,
  {1379fa5b-5805-4538-b469-a8de54c570bd}, !- Handle
  Wall Insulation [36],                   !- Name
  MediumRough,                            !- Roughness
  0.0565999999999999,                     !- Thickness {m}
  0.0432,                                 !- Conductivity {W/m-K}
  91,                                     !- Density {kg/m3}
  836.999999999999,                       !- Specific Heat {J/kg-K}
  0.9,                                    !- Thermal Absorptance
  0.5,                                    !- Solar Absorptance
  0.5;                                    !- Visible Absorptance

OS:StandardsInformation:Material,
  {24f328a6-ef1a-43e1-8da5-dc36e008f23a}, !- Handle
  {1379fa5b-5805-4538-b469-a8de54c570bd}; !- Material Name

OS:Construction,
  {dc826616-489a-4716-9c10-71fd620d6137}, !- Handle
  ASHRAE 189.1-2009 ExtWall Mass ClimateZone 4, !- Name
  ,                                       !- Surface Rendering Name
  {064df3f1-22e3-4900-9d8b-c68ebd89fbed}, !- Layer 1
  {5769c31a-a2f6-4cfc-9958-bd9bac4f928a}, !- Layer 2
  {fca5e9b1-3461-46f7-9066-4118acccf6f7}, !- Layer 3
  {b67ba9d4-1320-4b16-8747-25c3fec153f3}; !- Layer 4

OS:StandardsInformation:Construction,
  {f3761146-31c6-48cc-ad93-5dfaf1643c37}, !- Handle
  {dc826616-489a-4716-9c10-71fd620d6137}, !- Construction Name
  ExteriorWall,                           !- Intended Surface Type
  Mass,                                   !- Standards Construction Type
  ,                                       !- Perturbable Layer
  ,                                       !- Perturbable Layer Type
  ,                                       !- Other Perturbable Layer Type
  ASHRAE 189.1-2009;                      !- Construction Standard

OS:Material,
  {fca5e9b1-3461-46f7-9066-4118acccf6f7}, !- Handle
  Wall Insulation [37],                   !- Name
  MediumRough,                            !- Roughness
  0.0680999999999999,                     !- Thickness {m}
  0.0432,                                 !- Conductivity {W/m-K}
  91,                                     !- Density {kg/m3}
  836.999999999999,                       !- Specific Heat {J/kg-K}
  0.9,                                    !- Thermal Absorptance
  0.5,                                    !- Solar Absorptance
  0.5;                                    !- Visible Absorptance

OS:StandardsInformation:Material,
  {c025d0cd-b0a9-40ad-889c-cef5893f2449}, !- Handle
  {fca5e9b1-3461-46f7-9066-4118acccf6f7}; !- Material Name

OS:Construction,
  {8ffc7b12-2230-4e9d-9fb1-733f61f2bba3}, !- Handle
  ASHRAE 189.1-2009 ExtWall Mass ClimateZone 5, !- Name
  ,                                       !- Surface Rendering Name
  {064df3f1-22e3-4900-9d8b-c68ebd89fbed}, !- Layer 1
  {5769c31a-a2f6-4cfc-9958-bd9bac4f928a}, !- Layer 2
  {bc327a41-fec4-470e-aff6-0f2f631ff466}, !- Layer 3
  {b67ba9d4-1320-4b16-8747-25c3fec153f3}; !- Layer 4

OS:StandardsInformation:Construction,
  {15bf0f59-aaa5-4da7-a924-9e32a6108250}, !- Handle
  {8ffc7b12-2230-4e9d-9fb1-733f61f2bba3}, !- Construction Name
  ExteriorWall,                           !- Intended Surface Type
  Mass,                                   !- Standards Construction Type
  ,                                       !- Perturbable Layer
  ,                                       !- Perturbable Layer Type
  ,                                       !- Other Perturbable Layer Type
  ASHRAE 189.1-2009;                      !- Construction Standard

OS:Material,
  {bc327a41-fec4-470e-aff6-0f2f631ff466}, !- Handle
  Wall Insulation [40],                   !- Name
  MediumRough,                            !- Roughness
  0.0793999999999999,                     !- Thickness {m}
  0.0432,                                 !- Conductivity {W/m-K}
  91,                                     !- Density {kg/m3}
  836.999999999999,                       !- Specific Heat {J/kg-K}
  0.9,                                    !- Thermal Absorptance
  0.5,                                    !- Solar Absorptance
  0.5;                                    !- Visible Absorptance

OS:StandardsInformation:Material,
  {9f0d8d54-33b7-46f9-aa71-fbf4e6b8796c}, !- Handle
  {bc327a41-fec4-470e-aff6-0f2f631ff466}; !- Material Name

OS:Construction,
  {96b3ea11-0cab-4c7d-bec4-a81a20977774}, !- Handle
  ASHRAE 189.1-2009 ExtWall Mass ClimateZone 6, !- Name
  ,                                       !- Surface Rendering Name
  {064df3f1-22e3-4900-9d8b-c68ebd89fbed}, !- Layer 1
  {5769c31a-a2f6-4cfc-9958-bd9bac4f928a}, !- Layer 2
  {33f46562-eb73-4e02-bd65-66f958bed4fe}, !- Layer 3
  {b67ba9d4-1320-4b16-8747-25c3fec153f3}; !- Layer 4

OS:StandardsInformation:Construction,
  {8421e80d-8b2b-4cde-ba64-d9659c0c1e3c}, !- Handle
  {96b3ea11-0cab-4c7d-bec4-a81a20977774}, !- Construction Name
  ExteriorWall,                           !- Intended Surface Type
  Mass,                                   !- Standards Construction Type
  ,                                       !- Perturbable Layer
  ,                                       !- Perturbable Layer Type
  ,                                       !- Other Perturbable Layer Type
  ASHRAE 189.1-2009;                      !- Construction Standard

OS:Material,
  {33f46562-eb73-4e02-bd65-66f958bed4fe}, !- Handle
  Wall Insulation [42],                   !- Name
  MediumRough,                            !- Roughness
  0.0913999999999999,                     !- Thickness {m}
  0.0432,                                 !- Conductivity {W/m-K}
  91,                                     !- Density {kg/m3}
  836.999999999999,                       !- Specific Heat {J/kg-K}