
OS:Version,
  {41e462ef-907a-4e67-8a9e-72489763a38c}, !- Handle
  1.3.0;                                  !- Version Identifier

OS:Construction,
  {c4ed3630-f5cb-46d8-b2cd-2518beb1bc10}, !- Handle
  ASHRAE 189.1-2009 AtticFloor ClimateZone 1-8, !- Name
  ,                                       !- Surface Rendering Name
  {23679856-f30b-40ad-a6fb-ec99565a6a71}, !- Layer 1
  {1b7e0206-a854-49c5-ad97-3ca5cf6f87f2}, !- Layer 2
  {23679856-f30b-40ad-a6fb-ec99565a6a71}; !- Layer 3

OS:StandardsInformation:Construction,
  {3ad9a608-04b4-42be-bed8-c0e9ba0a1ef4}, !- Handle
  {c4ed3630-f5cb-46d8-b2cd-2518beb1bc10}, !- Construction Name
  AtticFloor,                             !- Intended Surface Type
  WoodFramed;                             !- Standards Construction Type

OS:Material,
  {23679856-f30b-40ad-a6fb-ec99565a6a71}, !- Handle
  1/2IN Gypsum,                           !- Name
  Smooth,                                 !- Roughness
  0.0127,                                 !- Thickness {m}
  0.16,                                   !- Conductivity {W/m-K}
  784.9,                                  !- Density {kg/m3}
  830.000000000001,                       !- Specific Heat {J/kg-K}
  0.9,                                    !- Thermal Absorptance
  0.92,                                   !- Solar Absorptance
  0.92;                                   !- Visible Absorptance

OS:Material,
  {1b7e0206-a854-49c5-ad97-3ca5cf6f87f2}, !- Handle
  AtticFloor Insulation,                  !- Name
  MediumRough,                            !- Roughness
  0.2379,                                 !- Thickness {m}
  0.049,                                  !- Conductivity {W/m-K}
  265,                                    !- Density {kg/m3}
  836.800000000001,                       !- Specific Heat {J/kg-K}
  0.9,                                    !- Thermal Absorptance
  0.7,                                    !- Solar Absorptance
  0.7;                                    !- Visible Absorptance

OS:Construction,
  {61dd0a8b-896c-47d1-8283-59d832d7726d}, !- Handle
  ASHRAE 189.1-2009 ExtRoof IEAD ClimateZone 1, !- Name
  ,                                       !- Surface Rendering Name
  {54b4c311-23e8-4ebf-9d0c-e2bf6095c9d2}, !- Layer 1
  {15192c44-32da-4be0-b28c-9d062dc9a129}, !- Layer 2
  {513cef9c-e370-4f0a-9dbb-a85614dab9fd}; !- Layer 3

OS:StandardsInformation:Construction,
  {fc709a6e-dcad-4ebe-b844-8b662fa7f408}, !- Handle
  {61dd0a8b-896c-47d1-8283-59d832d7726d}, !- Construction Name
  ExteriorRoof,                           !- Intended Surface Type
  IEAD;                                   !- Standards Construction Type

OS:Material,
  {54b4c311-23e8-4ebf-9d0c-e2bf6095c9d2}, !- Handle
  Roof Membrane,                          !- Name
  VeryRough,                              !- Roughness
  0.0095,                                 !- Thickness {m}
  0.16,                                   !- Conductivity {W/m-K}
  1121.29,                                !- Density {kg/m3}
  1460,                                   !- Specific Heat {J/kg-K}
  0.9,                                    !- Thermal Absorptance
  0.7,                                    !- Solar Absorptance
  0.7;                                    !- Visible Absorptance

OS:Material,
  {15192c44-32da-4be0-b28c-9d062dc9a129}, !- Handle
  Roof Insulation [18],                   !- Name
  MediumRough,                            !- Roughness
  0.1693,                                 !- Thickness {m}
  0.049,                                  !- Conductivity {W/m-K}
  265,                                    !- Density {kg/m3}
  836.800000000001,                       !- Specific Heat {J/kg-K}
  0.9,                                    !- Thermal Absorptance
  0.7,                                    !- Solar Absorptance
  0.7;                                    !- Visible Absorptance

OS:Material,
  {513cef9c-e370-4f0a-9dbb-a85614dab9fd}, !- Handle
  Metal Decking,                          !- Name
  MediumSmooth,                           !- Roughness
  0.0015,                                 !- Thickness {m}
  45.006,                                 !- Conductivity {W/m-K}
  7680,                                   !- Density {kg/m3}
  418.4,                                  !- Specific Heat {J/kg-K}
  0.9,                                    !- Thermal Absorptance
  0.7,                                    !- Solar Absorptance
  0.3;                                    !- Visible Absorptance

OS:Construction,
  {061141fb-76a3-4669-8cae-7cfa5a0d3a0f}, !- Handle
  ASHRAE 189.1-2009 ExtRoof IEAD ClimateZone 2-5, !- Name
  ,                                       !- Surface Rendering Name
  {54b4c311-23e8-4ebf-9d0c-e2bf6095c9d2}, !- Layer 1
  {64dc061c-fc75-4a97-8a22-8cad3646c719}, !- Layer 2
  {513cef9c-e370-4f0a-9dbb-a85614dab9fd}; !- Layer 3

OS:StandardsInformation:Construction,
  {f02e7385-a312-4e22-bd4a-ed6a76bd6880}, !- Handle
  {061141fb-76a3-4669-8cae-7cfa5a0d3a0f}, !- Construction Name
  ExteriorRoof,                           !- Intended Surface Type
  IEAD;                                   !- Standards Construction Type

OS:Material,
  {64dc061c-fc75-4a97-8a22-8cad3646c719}, !- Handle
  Roof Insulation [21],                   !- Name
  MediumRough,                            !- Roughness
  0.2105,                                 !- Thickness {m}
  0.049,                                  !- Conductivity {W/m-K}
  265,                                    !- Density {kg/m3}
  836.800000000001,                       !- Specific Heat {J/kg-K}
  0.9,                                    !- Thermal Absorptance
  0.7,                                    !- Solar Absorptance
  0.7;                                    !- Visible Absorptance

OS:Construction,
  {81a731be-21ac-4c8c-8d4f-e8ac60548b20}, !- Handle
  ASHRAE 189.1-2009 ExtRoof IEAD ClimateZone 6, !- Name
  ,                                       !- Surface Rendering Name
  {54b4c311-23e8-4ebf-9d0c-e2bf6095c9d2}, !- Layer 1
  {9b1d8f61-a577-4a95-9054-480430a20208}, !- Layer 2
  {513cef9c-e370-4f0a-9dbb-a85614dab9fd}; !- Layer 3

OS:StandardsInformation:Construction,
  {2d0797b0-a44c-4ce0-b98e-f470aa27368c}, !- Handle
  {81a731be-21ac-4c8c-8d4f-e8ac60548b20}, !- Construction Name
  ExteriorRoof,                           !- Intended Surface Type
  IEAD;                                   !- Standards Construction Type

OS:Material,
  {9b1d8f61-a577-4a95-9054-480430a20208}, !- Handle
  Roof Insulation [24],                   !- Name
  MediumRough,                            !- Roughness
  0.260100000000001,                      !- Thickness {m}
  0.049,                                  !- Conductivity {W/m-K}
  265,                                    !- Density {kg/m3}
  836.800000000001,                       !- Specific Heat {J/kg-K}
  0.9,                                    !- Thermal Absorptance
  0.7,                                    !- Solar Absorptance
  0.7;                                    !- Visible Absorptance

OS:Construction,
  {cd238b63-9c28-4791-9c19-41651e7163ff}, !- Handle
  ASHRAE 189.1-2009 ExtRoof IEAD ClimateZone 7-8, !- Name
  ,                                       !- Surface Rendering Name
  {54b4c311-23e8-4ebf-9d0c-e2bf6095c9d2}, !- Layer 1
  {50980016-ab7d-479c-9aad-bdeddef10316}, !- Layer 2
  {513cef9c-e370-4f0a-9dbb-a85614dab9fd}; !- Layer 3

OS:StandardsInformation:Construction,
  {fc65d9d9-40c0-47e2-bc36-19c2ff3507b0}, !- Handle
  {cd238b63-9c28-4791-9c19-41651e7163ff}, !- Construction Name
  ExteriorRoof,                           !- Intended Surface Type
  IEAD;                                   !- Standards Construction Type

OS:Material,
  {50980016-ab7d-479c-9aad-bdeddef10316}, !- Handle
  Roof Insulation [26],                   !- Name
  MediumRough,                            !- Roughness
  0.2941,                                 !- Thickness {m}
  0.049,                                  !- Conductivity {W/m-K}
  265,                                    !- Density {kg/m3}
  836.800000000001,                       !- Specific Heat {J/kg-K}
  0.9,                                    !- Thermal Absorptance
  0.7,                                    !- Solar Absorptance
  0.7;                                    !- Visible Absorptance

OS:Construction,
  {7782a2f1-7be5-46ac-915f-c4d92cfc7f3d}, !- Handle
  ASHRAE 189.1-2009 ExtRoof Metal ClimateZone 1, !- Name
  ,                                       !- Surface Rendering Name
  {2c3e39d5-487c-4e34-ab47-45646e4c9954}, !- Layer 1
  {6c749e13-fd63-4ae3-878b-2816e90dab1f}; !- Layer 2

OS:StandardsInformation:Construction,
  {9262f5d8-0e52-4958-8bd1-d39e97fcd97e}, !- Handle
  {7782a2f1-7be5-46ac-915f-c4d92cfc7f3d}, !- Construction Name
  ExteriorRoof,                           !- Intended Surface Type
  Metal;                                  !- Standards Construction Type

OS:Material,
  {2c3e39d5-487c-4e34-ab47-45646e4c9954}, !- Handle
  Metal Roofing,                          !- Name
  MediumSmooth,                           !- Roughness
  0.0015,                                 !- Thickness {m}
  45.006,                                 !- Conductivity {W/m-K}
  7680,                                   !- Density {kg/m3}
  418.4,                                  !- Specific Heat {J/kg-K}
  0.9,                                    !- Thermal Absorptance
  0.3,                                    !- Solar Absorptance
  0.3;                                    !- Visible Absorptance

OS:Material,
  {6c749e13-fd63-4ae3-878b-2816e90dab1f}, !- Handle
  Roof Insulation [19],                   !- Name
  MediumRough,                            !- Roughness
  0.1868,                                 !- Thickness {m}
  0.049,                                  !- Conductivity {W/m-K}
  265,                                    !- Density {kg/m3}
  836.800000000001,                       !- Specific Heat {J/kg-K}
  0.9,                                    !- Thermal Absorptance
  0.7,                                    !- Solar Absorptance
  0.7;                                    !- Visible Absorptance

OS:Construction,
  {5e55812d-de6d-49af-9f71-336f05c6b661}, !- Handle
  ASHRAE 189.1-2009 ExtRoof Metal ClimateZone 2-5, !- Name
  ,                                       !- Surface Rendering Name
  {2c3e39d5-487c-4e34-ab47-45646e4c9954}, !- Layer 1
  {9ca20605-a073-43ec-9666-e83a5ba8ca05}; !- Layer 2

OS:StandardsInformation:Construction,
  {f95a3a91-cc1a-40c7-ac06-7dec7f75691c}, !- Handle
  {5e55812d-de6d-49af-9f71-336f05c6b661}, !- Construction Name
  ExteriorRoof,                           !- Intended Surface Type
  Metal;                                  !- Standards Construction Type

OS:Material,
  {9ca20605-a073-43ec-9666-e83a5ba8ca05}, !- Handle
  Roof Insulation [22],                   !- Name
  MediumRough,                            !- Roughness
  0.2358,                                 !- Thickness {m}
  0.049,                                  !- Conductivity {W/m-K}
  265,                                    !- Density {kg/m3}
  836.800000000001,                       !- Specific Heat {J/kg-K}
  0.9,                                    !- Thermal Absorptance
  0.7,                                    !- Solar Absorptance
  0.7;                                    !- Visible Absorptance

OS:Construction,
  {6007dccd-84be-43be-bfbc-3f5dfa397638}, !- Handle
  ASHRAE 189.1-2009 ExtRoof Metal ClimateZone 6, !- Name
  ,                                       !- Surface Rendering Name
  {2c3e39d5-487c-4e34-ab47-45646e4c9954}, !- Layer 1
  {18e2cd4f-003e-4ccc-a78f-cbe13ddaa794}; !- Layer 2

OS:StandardsInformation:Construction,
  {ee8e7804-5147-429f-a80d-bdcc846ada49}, !- Handle
  {6007dccd-84be-43be-bfbc-3f5dfa397638}, !- Construction Name
  ExteriorRoof,                           !- Intended Surface Type
  Metal;                                  !- Standards Construction Type

OS:Material,
  {18e2cd4f-003e-4ccc-a78f-cbe13ddaa794}, !- Handle
  Roof Insulation [25],                   !- Name
  MediumRough,                            !- Roughness
  0.263,                                  !- Thickness {m}
  0.049,                                  !- Conductivity {W/m-K}
  265,                                    !- Density {kg/m3}
  836.800000000001,                       !- Specific Heat {J/kg-K}
  0.9,                                    !- Thermal Absorptance
  0.7,                                    !- Solar Absorptance
  0.7;                                    !- Visible Absorptance

OS:Construction,
  {f6ce518c-c1c0-4ac1-bd8f-2b98729b7553}, !- Handle
  ASHRAE 189.1-2009 ExtRoof Metal ClimateZone 7-8, !- Name
  ,                                       !- Surface Rendering Name
  {2c3e39d5-487c-4e34-ab47-45646e4c9954}, !- Layer 1
  {63879028-cdfa-42c6-aeb2-549971932672}; !- Layer 2

OS:StandardsInformation:Construction,
  {bf46c717-d71c-48ca-bba3-d45bdf85541b}, !- Handle
  {f6ce518c-c1c0-4ac1-bd8f-2b98729b7553}, !- Construction Name
  ExteriorRoof,                           !- Intended Surface Type
  Metal;                                  !- Standards Construction Type

OS:Material,
  {63879028-cdfa-42c6-aeb2-549971932672}, !- Handle
  Roof Insulation [27],                   !- Name
  MediumRough,                            !- Roughness
  0.297000000000001,                      !- Thickness {m}
  0.049,                                  !- Conductivity {W/m-K}
  265,                                    !- Density {kg/m3}
  836.800000000001,                       !- Specific Heat {J/kg-K}
  0.9,                                    !- Thermal Absorptance
  0.7,                                    !- Solar Absorptance
  0.7;                                    !- Visible Absorptance

OS:Construction,
  {37148fcf-add5-48a1-adff-c5b7eec33cb2}, !- Handle
  ASHRAE 189.1-2009 ExtWall Mass ClimateZone 1, !- Name
  ,                                       !- Surface Rendering Name
  {f94497b8-c7bf-4d0e-a05f-51632b45b4b4}, !- Layer 1
  {032c8789-f959-438c-b0c1-c03b070035b4}, !- Layer 2
  {21a45505-59f4-49eb-badd-20c368cfe589}, !- Layer 3
  {23679856-f30b-40ad-a6fb-ec99565a6a71}; !- Layer 4

OS:StandardsInformation:Construction,
  {d77eb680-c789-4257-a29b-7abb53a3ebfa}, !- Handle
  {37148fcf-add5-48a1-adff-c5b7eec33cb2}, !- Construction Name
  ExteriorWall,                           !- Intended Surface Type
  Mass;                                   !- Standards Construction Type

OS:Material,
  {f94497b8-c7bf-4d0e-a05f-51632b45b4b4}, !- Handle
  1IN Stucco,                             !- Name
  Smooth,                                 !- Roughness
  0.0253,                                 !- Thickness {m}
  0.691799999999999,                      !- Conductivity {W/m-K}
  1858,                                   !- Density {kg/m3}
  836.999999999999,                       !- Specific Heat {J/kg-K}
  0.9,                                    !- Thermal Absorptance
  0.92,                                   !- Solar Absorptance
  0.92;                                   !- Visible Absorptance

OS:Material,
  {032c8789-f959-438c-b0c1-c03b070035b4}, !- Handle
  8IN Concrete HW,                        !- Name
  MediumRough,                            !- Roughness
  0.2033,                                 !- Thickness {m}
  1.72959999999999,                       !- Conductivity {W/m-K}
  2242.99999999999,                       !- Density {kg/m3}
  836.999999999999,                       !- Specific Heat {J/kg-K}
  0.9,                                    !- Thermal Absorptance
  0.65,                                   !- Solar Absorptance
  0.65;                                   !- Visible Absorptance

OS:Material,
  {21a45505-59f4-49eb-badd-20c368cfe589}, !- Handle
  Wall Insulation [31],                   !- Name
  MediumRough,                            !- Roughness
  0.0337000000000001,                     !- Thickness {m}
  0.0432,                                 !- Conductivity {W/m-K}
  91,                                     !- Density {kg/m3}
  836.999999999999,                       !- Specific Heat {J/kg-K}
  0.9,                                    !- Thermal Absorptance
  0.5,                                    !- Solar Absorptance
  0.5;                                    !- Visible Absorptance

OS:Construction,
  {9a176b73-41b9-4003-92ac-2f85d2917f58}, !- Handle
  ASHRAE 189.1-2009 ExtWall Mass ClimateZone 2, !- Name
  ,                                       !- Surface Rendering Name
  {f94497b8-c7bf-4d0e-a05f-51632b45b4b4}, !- Layer 1
  {032c8789-f959-438c-b0c1-c03b070035b4}, !- Layer 2
  {080ef29c-6fd1-4daa-a864-bab525eeb32f}, !- Layer 3
  {23679856-f30b-40ad-a6fb-ec99565a6a71}; !- Layer 4

OS:StandardsInformation:Construction,
  {0a2d846d-9f29-4673-999c-393fd3a4268c}, !- Handle
  {9a176b73-41b9-4003-92ac-2f85d2917f58}, !- Construction Name
  ExteriorWall,                           !- Intended Surface Type
  Mass;                                   !- Standards Construction Type

OS:Material,
  {080ef29c-6fd1-4daa-a864-bab525eeb32f}, !- Handle
  Wall Insulation [35],                   !- Name
  MediumRough,                            !- Roughness
  0.0452,                                 !- Thickness {m}
  0.0432,                                 !- Conductivity {W/m-K}
  91,                                     !- Density {kg/m3}
  836.999999999999,                       !- Specific Heat {J/kg-K}
  0.9,                                    !- Thermal Absorptance
  0.5,                                    !- Solar Absorptance
  0.5;                                    !- Visible Absorptance

OS:Construction,
  {59503f1a-4df2-4dd4-ab80-3f0d4fa08f97}, !- Handle
  ASHRAE 189.1-2009 ExtWall Mass ClimateZone 3, !- Name
  ,                                       !- Surface Rendering Name
  {f94497b8-c7bf-4d0e-a05f-51632b45b4b4}, !- Layer 1
  {032c8789-f959-438c-b0c1-c03b070035b4}, !- Layer 2
  {5f4383e5-4015-490e-aa51-63d21f7dbd3a}, !- Layer 3
  {23679856-f30b-40ad-a6fb-ec99565a6a71}; !- Layer 4

OS:StandardsInformation:Construction,
  {08f90fe2-9b5d-4c54-9594-98ad1ac287cb}, !- Handle
  {59503f1a-4df2-4dd4-ab80-3f0d4fa08f97}, !- Construction Name
  ExteriorWall,                           !- Intended Surface Type
  Mass;                                   !- Standards Construction Type

OS:Material,
  {5f4383e5-4015-490e-aa51-63d21f7dbd3a}, !- Handle
  Wall Insulation [36],                   !- Name
  MediumRough,                            !- Roughness
  0.0565999999999999,                     !- Thickness {m}
  0.0432,                                 !- Conductivity {W/m-K}
  91,                                     !- Density {kg/m3}
  836.999999999999,                       !- Specific Heat {J/kg-K}
  0.9,                                    !- Thermal Absorptance
  0.5,                                    !- Solar Absorptance
  0.5;                                    !- Visible Absorptance

OS:Construction,
  {4071ce2d-4e9a-4be4-9b53-4515b8ff255c}, !- Handle
  ASHRAE 189.1-2009 ExtWall Mass ClimateZone 4, !- Name
  ,                                       !- Surface Rendering Name
  {f94497b8-c7bf-4d0e-a05f-51632b45b4b4}, !- Layer 1
  {032c8789-f959-438c-b0c1-c03b070035b4}, !- Layer 2
  {4e9c8c81-5282-4b33-b86c-c72a7285e05d}, !- Layer 3
  {23679856-f30b-40ad-a6fb-ec99565a6a71}; !- Layer 4

OS:StandardsInformation:Construction,
  {7bfea72b-b73a-49b8-aba7-06c058c21e1e}, !- Handle
  {4071ce2d-4e9a-4be4-9b53-4515b8ff255c}, !- Construction Name
  ExteriorWall,                           !- Intended Surface Type
  Mass;                                   !- Standards Construction Type

OS:Material,
  {4e9c8c81-5282-4b33-b86c-c72a7285e05d}, !- Handle
  Wall Insulation [37],                   !- Name
  MediumRough,                            !- Roughness
  0.0680999999999999,                     !- Thickness {m}
  0.0432,                                 !- Conductivity {W/m-K}
  91,                                     !- Density {kg/m3}
  836.999999999999,                       !- Specific Heat {J/kg-K}
  0.9,                                    !- Thermal Absorptance
  0.5,                                    !- Solar Absorptance
  0.5;                                    !- Visible Absorptance

OS:Construction,
  {c00616f9-0b4c-4475-baf9-ec40408ce9bf}, !- Handle
  ASHRAE 189.1-2009 ExtWall Mass ClimateZone 5, !- Name
  ,                                       !- Surface Rendering Name
  {f94497b8-c7bf-4d0e-a05f-51632b45b4b4}, !- Layer 1
  {032c8789-f959-438c-b0c1-c03b070035b4}, !- Layer 2
  {6bf8f03e-9df4-456e-9e56-310c5ae6e346}, !- Layer 3
  {23679856-f30b-40ad-a6fb-ec99565a6a71}; !- Layer 4

OS:StandardsInformation:Construction,
  {b496daea-dacd-4d61-8a9d-2d12991c7e65}, !- Handle
  {c00616f9-0b4c-4475-baf9-ec40408ce9bf}, !- Construction Name
  ExteriorWall,                           !- Intended Surface Type
  Mass;                                   !- Standards Construction Type

OS:Material,
  {6bf8f03e-9df4-456e-9e56-310c5ae6e346}, !- Handle
  Wall Insulation [40],                   !- Name
  MediumRough,                            !- Roughness
  0.0793999999999999,                     !- Thickness {m}
  0.0432,                                 !- Conductivity {W/m-K}
  91,                                     !- Density {kg/m3}
  836.999999999999,                       !- Specific Heat {J/kg-K}
  0.9,                                    !- Thermal Absorptance
  0.5,                                    !- Solar Absorptance
  0.5;                                    !- Visible Absorptance

OS:Construction,
  {b58f9133-cbf1-4479-aad3-f6d1b99d1610}, !- Handle
  ASHRAE 189.1-2009 ExtWall Mass ClimateZone 6, !- Name
  ,                                       !- Surface Rendering Name
  {f94497b8-c7bf-4d0e-a05f-51632b45b4b4}, !- Layer 1
  {032c8789-f959-438c-b0c1-c03b070035b4}, !- Layer 2
  {cfcc0326-d360-407e-8439-ce1702dcd142}, !- Layer 3
  {23679856-f30b-40ad-a6fb-ec99565a6a71}; !- Layer 4

OS:StandardsInformation:Construction,
  {b388f9fe-7935-4128-bd46-2e0e7723d584}, !- Handle
  {b58f9133-cbf1-4479-aad3-f6d1b99d1610}, !- Construction Name
  ExteriorWall,                           !- Intended Surface Type
  Mass;                                   !- Standards Construction Type

OS:Material,
  {cfcc0326-d360-407e-8439-ce1702dcd142}, !- Handle
  Wall Insulation [42],                   !- Name
  MediumRough,                            !- Roughness
  0.0913999999999999,                     !- Thickness {m}
  0.0432,                                 !- Conductivity {W/m-K}
  91,                                     !- Density {kg/m3}
  836.999999999999,                       !- Specific Heat {J/kg-K}
  0.9,                                    !- Thermal Absorptance
  0.5,                                    !- Solar Absorptance
  0.5;                                    !- Visible Absorptance

OS:Construction,
  {5d62921d-8b3d-4340-8d37-b0e641fd1c83}, !- Handle
  ASHRAE 189.1-2009 ExtWall Mass ClimateZone 7-8, !- Name
  ,                                       !- Surface Rendering Name
  {f94497b8-c7bf-4d0e-a05f-51632b45b4b4}, !- Layer 1
  {032c8789-f959-438c-b0c1-c03b070035b4}, !- Layer 2
  {040f8a93-9c9c-4be9-b517-8c050b64a41b}, !- Layer 3
  {23679856-f30b-40ad-a6fb-ec99565a6a71}; !- Layer 4

OS:StandardsInformation:Construction,
  {bda7ccd8-d5e1-4979-832c-e4275ebf5a2c}, !- Handle
  {5d62921d-8b3d-4340-8d37-b0e641fd1c83}, !- Construction Name
  ExteriorWall,                           !- Intended Surface Type
  Mass;                                   !- Standards Construction Type

OS:Material,
  {040f8a93-9c9c-4be9-b517-8c050b64a41b}, !- Handle
  Wall Insulation [44],                   !- Name
  MediumRough,                            !- Roughness
  0.1104,                                 !- Thickness {m}
  0.0432,                                 !- Conductivity {W/m-K}
  91,                                     !- Density {kg/m3}
  836.999999999999,                       !- Specific Heat {J/kg-K}
  0.9,                                    !- Thermal Absorptance
  0.5,                                    !- Solar Absorptance
  0.5;                                    !- Visible Absorptance

OS:Construction,
  {59a210d2-a40b-439e-bffb-69efce649056}, !- Handle
  ASHRAE 189.1-2009 ExtWall Mass ClimateZone alt-res 1, !- Name
  ,                                       !- Surface Rendering Name
  {f94497b8-c7bf-4d0e-a05f-51632b45b4b4}, !- Layer 1
  {032c8789-f959-438c-b0c1-c03b070035b4}, !- Layer 2
  {080ef29c-6fd1-4daa-a864-bab525eeb32f}, !- Layer 3
  {23679856-f30b-40ad-a6fb-ec99565a6a71}; !- Layer 4

OS:StandardsInformation:Construction,
  {ecdce48a-de94-4ad0-b98b-766b3272ed06}, !- Handle
  {59a210d2-a40b-439e-bffb-69efce649056}, !- Construction Name
  ExteriorWall,                           !- Intended Surface Type
  Mass;                                   !- Standards Construction Type

OS:Construction,
  {650eae28-c46d-482d-97dd-c4059deffb75}, !- Handle
  ASHRAE 189.1-2009 ExtWall Mass ClimateZone alt-res 2, !- Name
  ,                                       !- Surface Rendering Name
  {f94497b8-c7bf-4d0e-a05f-51632b45b4b4}, !- Layer 1
  {032c8789-f959-438c-b0c1-c03b070035b4}, !- Layer 2
  {5f4383e5-4015-490e-aa51-63d21f7dbd3a}, !- Layer 3
  {23679856-f30b-40ad-a6fb-ec99565a6a71}; !- Layer 4

OS:StandardsInformation:Construction,
  {37f0534f-c162-4b3e-91a2-4edd7c2d0f8b}, !- Handle
  {650eae28-c46d-482d-97dd-c4059deffb75}, !- Construction Name
  ExteriorWall,                           !- Intended Surface Type
  Mass;                                   !- Standards Construction Type

OS:Construction,
  {51eb05e0-d02f-490a-8c5d-c538186adb75}, !- Handle
  ASHRAE 189.1-2009 ExtWall Mass ClimateZone alt-res 3, !- Name
  ,                                       !- Surface Rendering Name
  {f94497b8-c7bf-4d0e-a05f-51632b45b4b4}, !- Layer 1
  {032c8789-f959-438c-b0c1-c03b070035b4}, !- Layer 2
  {4e9c8c81-5282-4b33-b86c-c72a7285e05d}, !- Layer 3
  {23679856-f30b-40ad-a6fb-ec99565a6a71}; !- Layer 4

OS:StandardsInformation:Construction,
  {6196e7ea-967b-49b2-a833-9fb0d9b6a6ae}, !- Handle
  {51eb05e0-d02f-490a-8c5d-c538186adb75}, !- Construction Name
  ExteriorWall,                           !- Intended Surface Type
  Mass;                                   !- Standards Construction Type

OS:Construction,
  {70b0f586-d8c5-4fb7-8a61-719ef34bcb27}, !- Handle
  ASHRAE 189.1-2009 ExtWall Mass ClimateZone alt-res 4, !- Name
  ,                                       !- Surface Rendering Name
  {f94497b8-c7bf-4d0e-a05f-51632b45b4b4}, !- Layer 1
  {032c8789-f959-438c-b0c1-c03b070035b4}, !- Layer 2
  {6bf8f03e-9df4-456e-9e56-310c5ae6e346}, !- Layer 3
  {23679856-f30b-40ad-a6fb-ec99565a6a71}; !- Layer 4

OS:StandardsInformation:Construction,
  {ad1fe524-54a2-42f0-8a41-6af88cdb5256}, !- Handle
  {70b0f586-d8c5-4fb7-8a61-719ef34bcb27}, !- Construction Name
  ExteriorWall,                           !- Intended Surface Type
  Mass;                                   !- Standards Construction Type

OS:Construction,
  {e836dd1d-407c-41e1-924e-dc03b8ba00f6}, !- Handle
  ASHRAE 189.1-2009 ExtWall Mass ClimateZone alt-res 5, !- Name
  ,                                       !- Surface Rendering Name
  {f94497b8-c7bf-4d0e-a05f-51632b45b4b4}, !- Layer 1
  {032c8789-f959-438c-b0c1-c03b070035b4}, !- Layer 2
  {cfcc0326-d360-407e-8439-ce1702dcd142}, !- Layer 3
  {23679856-f30b-40ad-a6fb-ec99565a6a71}; !- Layer 4

OS:StandardsInformation:Construction,
  {856b0c99-f0ab-49a9-8bd1-c8b9435faa31}, !- Handle
  {e836dd1d-407c-41e1-924e-dc03b8ba00f6}, !- Construction Name
  ExteriorWall,                           !- Intended Surface Type
  Mass;                                   !- Standards Construction Type

OS:Construction,
  {dd83c1c5-3ad1-40af-bb05-a5f47c9f77de}, !- Handle
  ASHRAE 189.1-2009 ExtWall Mass ClimateZone alt-res 6, !- Name
  ,                                       !- Surface Rendering Name
  {f94497b8-c7bf-4d0e-a05f-51632b45b4b4}, !- Layer 1
  {032c8789-f959-438c-b0c1-c03b070035b4}, !- Layer 2
  {040f8a93-9c9c-4be9-b517-8c050b64a41b}, !- Layer 3
  {23679856-f30b-40ad-a6fb-ec99565a6a71}; !- Layer 4

OS:StandardsInformation:Construction,
  {a8e2dfa0-8b99-4a9d-b389-11e0da53a1bc}, !- Handle
  {dd83c1c5-3ad1-40af-bb05-a5f47c9f77de}, !- Construction Name
  ExteriorWall,                           !- Intended Surface Type
  Mass;                                   !- Standards Construction Type

OS:Construction,
  {43beb137-8c12-42cc-901a-d98efe20abdf}, !- Handle
  ASHRAE 189.1-2009 ExtWall Mass ClimateZone alt-res 7, !- Name
  ,                                       !- Surface Rendering Name
  {f94497b8-c7bf-4d0e-a05f-51632b45b4b4}, !- Layer 1
  {032c8789-f959-438c-b0c1-c03b070035b4}, !- Layer 2
  {040f8a93-9c9c-4be9-b517-8c050b64a41b}, !- Layer 3
  {23679856-f30b-40ad-a6fb-ec99565a6a71}; !- Layer 4

OS:StandardsInformation:Construction,
  {0abc3403-0fa9-4f89-b2cb-8793ed22aee3}, !- Handle
  {43beb137-8c12-42cc-901a-d98efe20abdf}, !- Construction Name
  ExteriorWall,                           !- Intended Surface Type
  Mass;                                   !- Standards Construction Type

OS:Construction,
  {09d630f8-a5ca-45d2-9d6b-0c8108e695e8}, !- Handle
  ASHRAE 189.1-2009 ExtWall Mass ClimateZone alt-res 8, !- Name