
OS:Version,
  {e61d63a0-d474-4250-b342-ace1634b360d}, !- Handle
  2.2.0;                                  !- Version Identifier

OS:Site,
  {f91b52a7-e3f5-4619-b474-49b7683cbe40}, !- Handle
  Site 1,                                 !- Name
  ,                                       !- Latitude {deg}
  ,                                       !- Longitude {deg}
  ,                                       !- Time Zone {hr}
  ,                                       !- Elevation {m}
  ;                                       !- Terrain

OS:YearDescription,
  {8efafcfd-27cd-43a3-b867-b9c5dd11f063}; !- Handle

OS:ClimateZones,
  {83e7a734-8998-4da6-843c-b83f2f83079d}, !- Handle
  ,                                       !- Active Institution
  ,                                       !- Active Year
  ,                                       !- Climate Zone Institution Name 1
  ,                                       !- Climate Zone Document Name 1
  ,                                       !- Climate Zone Document Year 1
  ,                                       !- Climate Zone Value 1
  CEC,                                    !- Climate Zone Institution Name 2
  California Climate Zone Descriptions,   !- Climate Zone Document Name 2
  1995,                                   !- Climate Zone Document Year 2
  ;                                       !- Climate Zone Value 2

OS:Building,
  {df68c038-f01e-437c-9e5b-d845b46bb4ce}, !- Handle
  Building 1,                             !- Name
  ,                                       !- Building Sector Type
  ,                                       !- North Axis {deg}
  ,                                       !- Nominal Floor to Floor Height {m}
  ,                                       !- Space Type Name
  ,                                       !- Default Construction Set Name
  ;                                       !- Default Schedule Set Name

OS:Facility,
  {66766077-e047-4207-a5c2-b0a64d6c0c46}; !- Handle

OS:SimulationControl,
  {15eb7801-678e-4c1a-8ee9-6afc3b2942c6}; !- Handle

OS:Sizing:Parameters,
  {e9452487-6b4e-47ca-a1f8-bc5f0842e826}, !- Handle
  1.25,                                   !- Heating Sizing Factor
  1.15;                                   !- Cooling Sizing Factor

OS:Timestep,
  {bf8fd47a-ea55-4228-8df6-b80ff6137aeb}, !- Handle
  6;                                      !- Number of Timesteps per Hour

OS:ShadowCalculation,
  {69b9451c-6de8-4197-933f-5b65edb90871}, !- Handle
  20,                                     !- Calculation Frequency
  15000;                                  !- Maximum Figures in Shadow Overlap Calculations

OS:HeatBalanceAlgorithm,
  {6829fa64-834e-4a73-8caa-009dc05f1b39}, !- Handle
  ConductionTransferFunction,             !- Algorithm
  200;                                    !- Surface Temperature Upper Limit {C}

OS:RunPeriod,
  {865202f6-ce0a-492a-a26a-861feed71632}, !- Handle
  Run Period 1,                           !- Name
  1,                                      !- Begin Month
  1,                                      !- Begin Day of Month
  12,                                     !- End Month
  31,                                     !- End Day of Month
  ,                                       !- Use Weather File Holidays and Special Days
  ,                                       !- Use Weather File Daylight Saving Period
  ,                                       !- Apply Weekend Holiday Rule
  ,                                       !- Use Weather File Rain Indicators
  ,                                       !- Use Weather File Snow Indicators
  ;                                       !- Number of Times Runperiod to be Repeated

OS:LifeCycleCost:Parameters,
  {5175a7e7-8255-4a7e-b29c-4e2a678bbd69}, !- Handle
  ,                                       !- Analysis Type
  ,                                       !- Discounting Convention
  ,                                       !- Inflation Approach
  ,                                       !- Real Discount Rate
  ,                                       !- Nominal Discount Rate
  ,                                       !- Inflation
  ,                                       !- Base Date Month
  ,                                       !- Base Date Year
  ,                                       !- Service Date Month
  ,                                       !- Service Date Year
  ;                                       !- Length of Study Period in Years

OS:SpaceType,
  {48168c65-7ad0-4bff-ace5-85052681f96d}, !- Handle
  TH-2016-Hospital-Patient Room, !- Name
  ,                                       !- Default Construction Set Name
  ,                                       !- Default Schedule Set Name
  ,                                       !- Group Rendering Name
  ,                                       !- Design Specification Outdoor Air Object Name
  ,                                       !- Standards Building Type
  ;                                       !- Standards Space Type

OS:SpaceType,
  {96cdffd1-2ca9-41c7-affa-6da25e2d45b1}, !- Handle
  TH-2016-Hospital-Operating Room, !- Name
  ,                                       !- Default Construction Set Name
  ,                                       !- Default Schedule Set Name
  ,                                       !- Group Rendering Name
  ,                                       !- Design Specification Outdoor Air Object Name
  ,                                       !- Standards Building Type
  ;                                       !- Standards Space Type

OS:SpaceType,
  {1bc08439-e100-45a3-926a-ba1a36377e72}, !- Handle
  TH-2016-Hospital-Emergency Room, !- Name
  ,                                       !- Default Construction Set Name
  ,                                       !- Default Schedule Set Name
  ,                                       !- Group Rendering Name
  ,                                       !- Design Specification Outdoor Air Object Name
  ,                                       !- Standards Building Type
  ;                                       !- Standards Space Type

OS:SpaceType,
  {50a2e897-117b-42a1-90f9-7a0252f2a4dc}, !- Handle
  TH-2016-Hospital-ICU, !- Name
  ,                                       !- Default Construction Set Name
  ,                                       !- Default Schedule Set Name
  ,                                       !- Group Rendering Name
  ,                                       !- Design Specification Outdoor Air Object Name
  ,                                       !- Standards Building Type
  ;                                       !- Standards Space Type

OS:SpaceType,
  {427f2f4e-dfc9-4026-bf7d-b9558e6e1876}, !- Handle
  TH-2016-Hospital-Pharmacy, !- Name
  ,                                       !- Default Construction Set Name
  ,                                       !- Default Schedule Set Name
  ,                                       !- Group Rendering Name
  ,                                       !- Design Specification Outdoor Air Object Name
  ,                                       !- Standards Building Type
  ;                                       !- Standards Space Type

OS:SpaceType,
  {d1dde38b-f0e0-4988-9c52-3f491a7ae6f4}, !- Handle
  TH-2016-Hospital-Conference, !- Name
  ,                                       !- Default Construction Set Name
  ,                                       !- Default Schedule Set Name
  ,                                       !- Group Rendering Name
  ,                                       !- Design Specification Outdoor Air Object Name
  ,                                       !- Standards Building Type
  ;                                       !- Standards Space Type

OS:SpaceType,
  {c75a4019-b511-4248-b281-dc2c06ae49be}, !- Handle
  TH-2016-Hospital-Corridor, !- Name
  ,                                       !- Default Construction Set Name
  ,                                       !- Default Schedule Set Name
  ,                                       !- Group Rendering Name
  ,                                       !- Design Specification Outdoor Air Object Name
  ,                                       !- Standards Building Type
  ;                                       !- Standards Space Type

OS:SpaceType,
  {4a3f6478-bd06-4fc9-a566-50143984fa27}, !- Handle
  TH-2016-Hospital-Office space, !- Name
  ,                                       !- Default Construction Set Name
  ,                                       !- Default Schedule Set Name
  ,                                       !- Group Rendering Name
  ,                                       !- Design Specification Outdoor Air Object Name
  ,                                       !- Standards Building Type
  ;                                       !- Standards Space Type

OS:SpaceType,
  {74e4442c-56fe-42ac-8ec2-19ab4aef2529}, !- Handle
  TH-2016-Hospital-Restaurant-Dining, !- Name
  ,                                       !- Default Construction Set Name
  ,                                       !- Default Schedule Set Name
  ,                                       !- Group Rendering Name
  ,                                       !- Design Specification Outdoor Air Object Name
  ,                                       !- Standards Building Type
  ;                                       !- Standards Space Type

OS:SpaceType,
  {d06e9bcb-6539-4c46-b60e-2c8305e791f3}, !- Handle
  TH-2016-Hospital-Cafeteria/Fast-food dining, !- Name
  ,                                       !- Default Construction Set Name
  ,                                       !- Default Schedule Set Name
  ,                                       !- Group Rendering Name
  ,                                       !- Design Specification Outdoor Air Object Name
  ,                                       !- Standards Building Type
  ;                                       !- Standards Space Type

OS:SpaceType,
  {936c1ed5-a292-4a89-af7c-16ef3cd91450}, !- Handle
  TH-2016-Hospital-Kitchen, !- Name
  ,                                       !- Default Construction Set Name
  ,                                       !- Default Schedule Set Name
  ,                                       !- Group Rendering Name
  ,                                       !- Design Specification Outdoor Air Object Name
  ,                                       !- Standards Building Type
  ;                                       !- Standards Space Type

OS:SpaceType,
  {b23fa715-cb49-4daf-80fc-b85e8ade255f}, !- Handle
  TH-2016-Hospital-Laundry, !- Name
  ,                                       !- Default Construction Set Name
  ,                                       !- Default Schedule Set Name
  ,                                       !- Group Rendering Name
  ,                                       !- Design Specification Outdoor Air Object Name
  ,                                       !- Standards Building Type
  ;                                       !- Standards Space Type

OS:SpaceType,
  {38cfb561-32e3-43cd-84b8-29f4fc897b84}, !- Handle
  TH-2016-Edu-Daycare (through age 4), !- Name
  ,                                       !- Default Construction Set Name
  ,                                       !- Default Schedule Set Name
  ,                                       !- Group Rendering Name
  ,                                       !- Design Specification Outdoor Air Object Name
  ,                                       !- Standards Building Type
  ;                                       !- Standards Space Type

OS:SpaceType,
  {f6278e0c-6fac-4355-bda7-baa23e2a9380}, !- Handle
  TH-2016-Edu-Daycare sickroom, !- Name
  ,                                       !- Default Construction Set Name
  ,                                       !- Default Schedule Set Name
  ,                                       !- Group Rendering Name
  ,                                       !- Design Specification Outdoor Air Object Name
  ,                                       !- Standards Building Type
  ;                                       !- Standards Space Type

OS:SpaceType,
  {bf1ef6c5-4d10-4ca3-a782-19bee07a44ce}, !- Handle
  TH-2016-Edu-Classroom (age 5-8), !- Name
  ,                                       !- Default Construction Set Name
  ,                                       !- Default Schedule Set Name
  ,                                       !- Group Rendering Name
  ,                                       !- Design Specification Outdoor Air Object Name
  ,                                       !- Standards Building Type
  ;                                       !- Standards Space Type

OS:SpaceType,
  {7df09383-d297-4ff5-9ad5-42013351d789}, !- Handle
  TH-2016-Edu-Classroom (age9 plus), !- Name
  ,                                       !- Default Construction Set Name
  ,                                       !- Default Schedule Set Name
  ,                                       !- Group Rendering Name
  ,                                       !- Design Specification Outdoor Air Object Name
  ,                                       !- Standards Building Type
  ;                                       !- Standards Space Type

OS:SpaceType,
  {1c9175df-3987-432a-a300-c187b93c5e34}, !- Handle
  TH-2016-Edu-Lecture classroom, !- Name
  ,                                       !- Default Construction Set Name
  ,                                       !- Default Schedule Set Name
  ,                                       !- Group Rendering Name
  ,                                       !- Design Specification Outdoor Air Object Name
  ,                                       !- Standards Building Type
  ;                                       !- Standards Space Type

OS:SpaceType,
  {44de88c4-9ecf-4497-b976-98f5fe8e15df}, !- Handle
  TH-2016-Edu-Lecture hall, !- Name
  ,                                       !- Default Construction Set Name
  ,                                       !- Default Schedule Set Name
  ,                                       !- Group Rendering Name
  ,                                       !- Design Specification Outdoor Air Object Name
  ,                                       !- Standards Building Type
  ;                                       !- Standards Space Type

OS:SpaceType,
  {f393e170-f33e-4f71-8f9f-cb8e0dd05cb5}, !- Handle
  TH-2016-Edu-Art classroom, !- Name
  ,                                       !- Default Construction Set Name
  ,                                       !- Default Schedule Set Name
  ,                                       !- Group Rendering Name
  ,                                       !- Design Specification Outdoor Air Object Name
  ,                                       !- Standards Building Type
  ;                                       !- Standards Space Type

OS:SpaceType,
  {bf5447d7-85f6-4abb-8b04-c7dafa6a860b}, !- Handle
  TH-2016-Edu-Science laboratory, !- Name
  ,                                       !- Default Construction Set Name
  ,                                       !- Default Schedule Set Name
  ,                                       !- Group Rendering Name
  ,                                       !- Design Specification Outdoor Air Object Name
  ,                                       !- Standards Building Type
  ;                                       !- Standards Space Type

OS:SpaceType,
  {699bbd4d-af31-4223-9680-265db6bc78e2}, !- Handle
  TH-2016-Edu-University/College laboratory, !- Name
  ,                                       !- Default Construction Set Name
  ,                                       !- Default Schedule Set Name
  ,                                       !- Group Rendering Name
  ,                                       !- Design Specification Outdoor Air Object Name
  ,                                       !- Standards Building Type
  ;                                       !- Standards Space Type

OS:SpaceType,
  {2a270b77-b438-4119-a1e5-01bbda832fdd}, !- Handle
  TH-2016-Edu-Wood/Metal shop, !- Name
  ,                                       !- Default Construction Set Name
  ,                                       !- Default Schedule Set Name
  ,                                       !- Group Rendering Name
  ,                                       !- Design Specification Outdoor Air Object Name
  ,                                       !- Standards Building Type
  ;                                       !- Standards Space Type

OS:SpaceType,
  {6e4598d6-1174-4525-b04b-71cdd55c166e}, !- Handle
  TH-2016-Edu-Computer lab, !- Name
  ,                                       !- Default Construction Set Name
  ,                                       !- Default Schedule Set Name
  ,                                       !- Group Rendering Name
  ,                                       !- Design Specification Outdoor Air Object Name
  ,                                       !- Standards Building Type
  ;                                       !- Standards Space Type

OS:SpaceType,
  {54b71a98-d757-4427-9ee7-885a75511204}, !- Handle
  TH-2016-Edu-Media center, !- Name
  ,                                       !- Default Construction Set Name
  ,                                       !- Default Schedule Set Name
  ,                                       !- Group Rendering Name
  ,                                       !- Design Specification Outdoor Air Object Name
  ,                                       !- Standards Building Type
  ;                                       !- Standards Space Type

OS:SpaceType,
  {9d1e3a9d-f733-4534-9500-0913535bc81f}, !- Handle
  TH-2016-Edu-Theater, !- Name
  ,                                       !- Default Construction Set Name
  ,                                       !- Default Schedule Set Name
  ,                                       !- Group Rendering Name
  ,                                       !- Design Specification Outdoor Air Object Name
  ,                                       !- Standards Building Type
  ;                                       !- Standards Space Type

OS:SpaceType,
  {b6073c2c-2a11-45ae-a160-a4c041b07025}, !- Handle
  TH-2016-Edu-Multipurpose, !- Name
  ,                                       !- Default Construction Set Name
  ,                                       !- Default Schedule Set Name
  ,                                       !- Group Rendering Name
  ,                                       !- Design Specification Outdoor Air Object Name
  ,                                       !- Standards Building Type
  ;                                       !- Standards Space Type

OS:SpaceType,
  {d704a479-8a5b-4eff-bc17-0d5da1b06773}, !- Handle
  TH-2016-Edu-Corridor, !- Name
  ,                                       !- Default Construction Set Name
  ,                                       !- Default Schedule Set Name
  ,                                       !- Group Rendering Name
  ,                                       !- Design Specification Outdoor Air Object Name
  ,                                       !- Standards Building Type
  ;                                       !- Standards Space Type

OS:SpaceType,
  {05214fc9-d1ee-459f-b1e0-1d30dc407504}, !- Handle
  TH-2016-Edu-Conference, !- Name
  ,                                       !- Default Construction Set Name
  ,                                       !- Default Schedule Set Name
  ,                                       !- Group Rendering Name
  ,                                       !- Design Specification Outdoor Air Object Name
  ,                                       !- Standards Building Type
  ;                                       !- Standards Space Type

OS:SpaceType,
  {df4daf66-add2-4c09-86f7-23bc6872d122}, !- Handle
  TH-2016-Edu-Office space, !- Name
  ,                                       !- Default Construction Set Name
  ,                                       !- Default Schedule Set Name
  ,                                       !- Group Rendering Name
  ,                                       !- Design Specification Outdoor Air Object Name
  ,                                       !- Standards Building Type
  ;                                       !- Standards Space Type

OS:SpaceType,
  {1766eda3-e1a8-4959-9741-fe255ab2c293}, !- Handle
  TH-2016-Edu-,          !- Name
  ,                                       !- Default Construction Set Name
  ,                                       !- Default Schedule Set Name
  ,                                       !- Group Rendering Name
  ,                                       !- Design Specification Outdoor Air Object Name
  ,                                       !- Standards Building Type
  ;                                       !- Standards Space Type

OS:SpaceType,
  {0d562696-88fa-47a9-b5aa-73ae3e2c7509}, !- Handle
  TH-2016-Edu-Coffee station, !- Name
  ,                                       !- Default Construction Set Name
  ,                                       !- Default Schedule Set Name
  ,                                       !- Group Rendering Name
  ,                                       !- Design Specification Outdoor Air Object Name
  ,                                       !- Standards Building Type
  ;                                       !- Standards Space Type

OS:SpaceType,
  {ecf2faae-ae3b-4186-8aa4-8a0a93631e95}, !- Handle
  TH-2016-Edu-Fast-food dining, !- Name
  ,                                       !- Default Construction Set Name
  ,                                       !- Default Schedule Set Name
  ,                                       !- Group Rendering Name
  ,                                       !- Design Specification Outdoor Air Object Name
  ,                                       !- Standards Building Type
  ;                                       !- Standards Space Type

OS:SpaceType,
  {c41b5400-d5dc-41a1-ab29-7d9ba1b982a4}, !- Handle
  TH-2016-Office-,          !- Name
  ,                                       !- Default Construction Set Name
  ,                                       !- Default Schedule Set Name
  ,                                       !- Group Rendering Name
  ,                                       !- Design Specification Outdoor Air Object Name
  ,                                       !- Standards Building Type
  ;                                       !- Standards Space Type

OS:SpaceType,
  {2b9cb3b2-fa6c-4e47-80db-af7dd8e1f626}, !- Handle
  TH-2016-Office-Lobby, !- Name
  ,                                       !- Default Construction Set Name
  ,                                       !- Default Schedule Set Name
  ,                                       !- Group Rendering Name
  ,                                       !- Design Specification Outdoor Air Object Name
  ,                                       !- Standards Building Type
  ;                                       !- Standards Space Type

OS:SpaceType,
  {a082fa58-bda5-4194-94c3-2ffb5aaafe48}, !- Handle
  TH-2016-Office-Storage, !- Name
  ,                                       !- Default Construction Set Name
  ,                                       !- Default Schedule Set Name
  ,                                       !- Group Rendering Name
  ,                                       !- Design Specification Outdoor Air Object Name
  ,                                       !- Standards Building Type
  ;                                       !- Standards Space Type

OS:SpaceType,
  {b72506a4-e5bd-4fc1-a20f-5cf25b714f95}, !- Handle
  TH-2016-Office-Office space, !- Name
  ,                                       !- Default Construction Set Name
  ,                                       !- Default Schedule Set Name
  ,                                       !- Group Rendering Name
  ,                                       !- Design Specification Outdoor Air Object Name
  ,                                       !- Standards Building Type
  ;                                       !- Standards Space Type

OS:SpaceType,
  {2e66f31d-b403-45c8-8513-21c790ae894f}, !- Handle
  TH-2016-Office-Reception area, !- Name
  ,                                       !- Default Construction Set Name
  ,                                       !- Default Schedule Set Name
  ,                                       !- Group Rendering Name
  ,                                       !- Design Specification Outdoor Air Object Name
  ,                                       !- Standards Building Type
  ;                                       !- Standards Space Type

OS:SpaceType,
  {b1c788d8-4d53-4c7f-9b3e-7773be839a65}, !- Handle
  TH-2016-Office-Telephone/data entry, !- Name
  ,                                       !- Default Construction Set Name
  ,                                       !- Default Schedule Set Name
  ,                                       !- Group Rendering Name
  ,                                       !- Design Specification Outdoor Air Object Name
  ,                                       !- Standards Building Type
  ;                                       !- Standards Space Type

OS:SpaceType,
  {69a1669b-642f-40ea-8062-801f9ebfc4c9}, !- Handle
  TH-2016-Office-Conference, !- Name
  ,                                       !- Default Construction Set Name
  ,                                       !- Default Schedule Set Name
  ,                                       !- Group Rendering Name
  ,                                       !- Design Specification Outdoor Air Object Name
  ,                                       !- Standards Building Type
  ;                                       !- Standards Space Type

OS:SpaceType,
  {5c7ea6f0-cabe-4db8-b10b-3ff527734588}, !- Handle
  TH-2016-Office-Corridor, !- Name
  ,                                       !- Default Construction Set Name
  ,                                       !- Default Schedule Set Name
  ,                                       !- Group Rendering Name
  ,                                       !- Design Specification Outdoor Air Object Name
  ,                                       !- Standards Building Type
  ;                                       !- Standards Space Type

OS:SpaceType,
  {4de049ae-9db8-4920-aeec-323a661c0368}, !- Handle
  EIT-2016-Thai Office- Electrical/Mechanical, !- Name
  ,                                       !- Default Construction Set Name
  ,                                       !- Default Schedule Set Name
  ,                                       !- Group Rendering Name
  ,                                       !- Design Specification Outdoor Air Object Name
  ,                                       !- Standards Building Type
  ;                                       !- Standards Space Type

OS:SpaceType,
  {2218bbdd-ff85-4d8f-a694-685f55c075a9}, !- Handle
  EIT-2016-Thai Office-Restrooms, !- Name
  ,                                       !- Default Construction Set Name
  ,                                       !- Default Schedule Set Name
  ,                                       !- Group Rendering Name
  ,                                       !- Design Specification Outdoor Air Object Name
  ,                                       !- Standards Building Type
  ;                                       !- Standards Space Type

OS:SpaceType,
  {caa3e8a0-596c-447c-8f9a-416ffc08a4c5}, !- Handle
  TH-2016-Office-Computer, !- Name
  ,                                       !- Default Construction Set Name
  ,                                       !- Default Schedule Set Name
  ,                                       !- Group Rendering Name
  ,                                       !- Design Specification Outdoor Air Object Name
  ,                                       !- Standards Building Type
  ;                                       !- Standards Space Type

OS:SpaceType,
  {f0ef3f96-dc4b-4c77-aa5f-e9007a118d1c}, !- Handle
  TH-2016-Office-,          !- Name
  ,                                       !- Default Construction Set Name
  ,                                       !- Default Schedule Set Name
  ,                                       !- Group Rendering Name
  ,                                       !- Design Specification Outdoor Air Object Name
  ,                                       !- Standards Building Type
  ;                                       !- Standards Space Type

OS:SpaceType,
  {a2161c92-f10f-42dc-8c6e-f19ba9247213}, !- Handle
  TH-2016-Office-Coffee station, !- Name
  ,                                       !- Default Construction Set Name
  ,                                       !- Default Schedule Set Name
  ,                                       !- Group Rendering Name
  ,                                       !- Design Specification Outdoor Air Object Name
  ,                                       !- Standards Building Type
  ;                                       !- Standards Space Type

OS:SpaceType,
  {e6b6098b-5021-4af0-aabd-5118c8f4a0d8}, !- Handle
  TH-2016-Office-Fast food dining, !- Name
  ,                                       !- Default Construction Set Name
  ,                                       !- Default Schedule Set Name
  ,                                       !- Group Rendering Name
  ,                                       !- Design Specification Outdoor Air Object Name
  ,                                       !- Standards Building Type
  ;                                       !- Standards Space Type

OS:SpaceType,
  {421e4f43-14a4-47b8-9b62-d4c9773b5dfb}, !- Handle
  TH-2016-Con-Dwelling unit, !- Name
  ,                                       !- Default Construction Set Name
  ,                                       !- Default Schedule Set Name
  ,                                       !- Group Rendering Name
  ,                                       !- Design Specification Outdoor Air Object Name
  ,                                       !- Standards Building Type