
OS:Version,
  {f9da81e2-c707-401d-980b-22c56d73be43}, !- Handle
  2.2.0;                                  !- Version Identifier

OS:Site,
  {f91b52a7-e3f5-4619-b474-49b7683cbe40}, !- Handle
  Site 1,                                 !- Name
  ,                                       !- Latitude {deg}
  ,                                       !- Longitude {deg}
  ,                                       !- Time Zone {hr}
  ,                                       !- Elevation {m}
  ;                                       !- Terrain

OS:YearDescription,
  {8efafcfd-27cd-43a3-b867-b9c5dd11f063}; !- Handle

OS:ClimateZones,
  {83e7a734-8998-4da6-843c-b83f2f83079d}, !- Handle
  ,                                       !- Active Institution
  ,                                       !- Active Year
  ,                                       !- Climate Zone Institution Name 1
  ,                                       !- Climate Zone Document Name 1
  ,                                       !- Climate Zone Document Year 1
  ,                                       !- Climate Zone Value 1
  CEC,                                    !- Climate Zone Institution Name 2
  California Climate Zone Descriptions,   !- Climate Zone Document Name 2
  1995,                                   !- Climate Zone Document Year 2
  2;                                      !- Climate Zone Value 2

OS:Building,
  {df68c038-f01e-437c-9e5b-d845b46bb4ce}, !- Handle
  Building 1,                             !- Name
  ,                                       !- Building Sector Type
  ,                                       !- North Axis {deg}
  ,                                       !- Nominal Floor to Floor Height {m}
  ,                                       !- Space Type Name
  ,                                       !- Default Construction Set Name
  ;                                       !- Default Schedule Set Name

OS:Facility,
  {66766077-e047-4207-a5c2-b0a64d6c0c46}; !- Handle

OS:SimulationControl,
  {15eb7801-678e-4c1a-8ee9-6afc3b2942c6}; !- Handle

OS:Sizing:Parameters,
  {e9452487-6b4e-47ca-a1f8-bc5f0842e826}, !- Handle
  1.25,                                   !- Heating Sizing Factor
  1.15;                                   !- Cooling Sizing Factor

OS:Timestep,
  {bf8fd47a-ea55-4228-8df6-b80ff6137aeb}, !- Handle
  6;                                      !- Number of Timesteps per Hour

OS:ShadowCalculation,
  {69b9451c-6de8-4197-933f-5b65edb90871}, !- Handle
  20,                                     !- Calculation Frequency
  15000;                                  !- Maximum Figures in Shadow Overlap Calculations

OS:HeatBalanceAlgorithm,
  {6829fa64-834e-4a73-8caa-009dc05f1b39}, !- Handle
  ConductionTransferFunction,             !- Algorithm
  200;                                    !- Surface Temperature Upper Limit {C}

OS:RunPeriod,
  {865202f6-ce0a-492a-a26a-861feed71632}, !- Handle
  Run Period 1,                           !- Name
  1,                                      !- Begin Month
  1,                                      !- Begin Day of Month
  12,                                     !- End Month
  31,                                     !- End Day of Month
  ,                                       !- Use Weather File Holidays and Special Days
  ,                                       !- Use Weather File Daylight Saving Period
  ,                                       !- Apply Weekend Holiday Rule
  ,                                       !- Use Weather File Rain Indicators
  ,                                       !- Use Weather File Snow Indicators
  ;                                       !- Number of Times Runperiod to be Repeated

OS:LifeCycleCost:Parameters,
  {5175a7e7-8255-4a7e-b29c-4e2a678bbd69}, !- Handle
  ,                                       !- Analysis Type
  ,                                       !- Discounting Convention
  ,                                       !- Inflation Approach
  ,                                       !- Real Discount Rate
  ,                                       !- Nominal Discount Rate
  ,                                       !- Inflation
  ,                                       !- Base Date Month
  ,                                       !- Base Date Year
  ,                                       !- Service Date Month
  ,                                       !- Service Date Year
  ;                                       !- Length of Study Period in Years

OS:SpaceType,
  {48168c65-7ad0-4bff-ace5-85052681f96d}, !- Handle
  TH-2016-Hospital-Patient Room,          !- Name
  ,                                       !- Default Construction Set Name
  ,                                       !- Default Schedule Set Name
  {99179932-1d20-484c-a712-bf63f81a48cb}, !- Group Rendering Name
  {1f527f83-b76e-462c-9469-6c9b18f74a77}, !- Design Specification Outdoor Air Object Name
  ,                                       !- Standards Building Type
  ;                                       !- Standards Space Type

OS:SpaceType,
  {96cdffd1-2ca9-41c7-affa-6da25e2d45b1}, !- Handle
  TH-2016-Hospital-Operating Room,        !- Name
  ,                                       !- Default Construction Set Name
  ,                                       !- Default Schedule Set Name
  {1dcf8579-538d-45c3-8b42-e1e7e2027520}, !- Group Rendering Name
  {6f0787e0-9f2d-41d5-aecf-e6799c98a655}, !- Design Specification Outdoor Air Object Name
  ,                                       !- Standards Building Type
  ;                                       !- Standards Space Type

OS:SpaceType,
  {1bc08439-e100-45a3-926a-ba1a36377e72}, !- Handle
  TH-2016-Hospital-Emergency Room,        !- Name
  ,                                       !- Default Construction Set Name
  ,                                       !- Default Schedule Set Name
  {f33ac7cb-5f9e-4438-921c-95b9f395fed8}, !- Group Rendering Name
  {bb15cf73-28a7-4072-bc8f-5d1bb67d3b79}, !- Design Specification Outdoor Air Object Name
  ,                                       !- Standards Building Type
  ;                                       !- Standards Space Type

OS:SpaceType,
  {50a2e897-117b-42a1-90f9-7a0252f2a4dc}, !- Handle
  TH-2016-Hospital-ICU,                   !- Name
  ,                                       !- Default Construction Set Name
  ,                                       !- Default Schedule Set Name
  {99a4c217-e2e0-4101-b362-9c5f42ce8a99}, !- Group Rendering Name
  {43518754-74f7-46b4-83e8-09905ed7a9f4}, !- Design Specification Outdoor Air Object Name
  ,                                       !- Standards Building Type
  ;                                       !- Standards Space Type

OS:SpaceType,
  {427f2f4e-dfc9-4026-bf7d-b9558e6e1876}, !- Handle
  TH-2016-Hospital-Pharmacy,              !- Name
  ,                                       !- Default Construction Set Name
  ,                                       !- Default Schedule Set Name
  {defea093-ea87-4504-9bb5-aea2e307e465}, !- Group Rendering Name
  {50883875-359e-4c75-bf53-ac8cc2d9b123}, !- Design Specification Outdoor Air Object Name
  ,                                       !- Standards Building Type
  ;                                       !- Standards Space Type

OS:SpaceType,
  {d1dde38b-f0e0-4988-9c52-3f491a7ae6f4}, !- Handle
  TH-2016-Hospital-Conference,            !- Name
  ,                                       !- Default Construction Set Name
  ,                                       !- Default Schedule Set Name
  {190695f7-fe17-4518-bf0d-f60fc5283738}, !- Group Rendering Name
  {14886fe3-846d-415d-a725-a54dae37f547}, !- Design Specification Outdoor Air Object Name
  ,                                       !- Standards Building Type
  ;                                       !- Standards Space Type

OS:SpaceType,
  {c75a4019-b511-4248-b281-dc2c06ae49be}, !- Handle
  TH-2016-Hospital-Corridor,              !- Name
  ,                                       !- Default Construction Set Name
  ,                                       !- Default Schedule Set Name
  {41138c41-99ce-47b1-945d-5e4ccf1f0a4b}, !- Group Rendering Name
  {6f453457-ec4a-4b90-a43a-5c8b1c92bea7}, !- Design Specification Outdoor Air Object Name
  ,                                       !- Standards Building Type
  ;                                       !- Standards Space Type

OS:SpaceType,
  {4a3f6478-bd06-4fc9-a566-50143984fa27}, !- Handle
  TH-2016-Hospital-Office space,          !- Name
  ,                                       !- Default Construction Set Name
  ,                                       !- Default Schedule Set Name
  {1f0eb425-d1b9-41f3-93b7-33967bba507f}, !- Group Rendering Name
  {786465d0-943d-4615-a3b1-74d170ca7715}, !- Design Specification Outdoor Air Object Name
  ,                                       !- Standards Building Type
  ;                                       !- Standards Space Type

OS:SpaceType,
  {74e4442c-56fe-42ac-8ec2-19ab4aef2529}, !- Handle
  TH-2016-Hospital-Restaurant-Dining,     !- Name
  ,                                       !- Default Construction Set Name
  ,                                       !- Default Schedule Set Name
  {ff315101-3020-4c56-9094-b7eb0566cfda}, !- Group Rendering Name
  {119184a1-14eb-42d8-b272-3478b8df2634}, !- Design Specification Outdoor Air Object Name
  ,                                       !- Standards Building Type
  ;                                       !- Standards Space Type

OS:SpaceType,
  {d06e9bcb-6539-4c46-b60e-2c8305e791f3}, !- Handle
  TH-2016-Hospital-Cafeteria/Fast-food dining, !- Name
  ,                                       !- Default Construction Set Name
  ,                                       !- Default Schedule Set Name
  {ddf0e79d-1f98-493d-8b2f-405afe80def4}, !- Group Rendering Name
  {12bd6345-b5cd-45f5-b409-fdda7ea1c2fc}, !- Design Specification Outdoor Air Object Name
  ,                                       !- Standards Building Type
  ;                                       !- Standards Space Type

OS:SpaceType,
  {936c1ed5-a292-4a89-af7c-16ef3cd91450}, !- Handle
  TH-2016-Hospital-Kitchen,               !- Name
  ,                                       !- Default Construction Set Name
  ,                                       !- Default Schedule Set Name
  {64ba92b2-6621-4588-bc12-a014a675757b}, !- Group Rendering Name
  {07d77d44-226b-45c2-85a6-0d31cb33c886}, !- Design Specification Outdoor Air Object Name
  ,                                       !- Standards Building Type
  ;                                       !- Standards Space Type

OS:SpaceType,
  {b23fa715-cb49-4daf-80fc-b85e8ade255f}, !- Handle
  TH-2016-Hospital-Laundry,               !- Name
  ,                                       !- Default Construction Set Name
  ,                                       !- Default Schedule Set Name
  {4cf686bd-41b4-4571-b82d-43223799d71a}, !- Group Rendering Name
  {fc0c2960-1fd9-4275-9beb-db74f9770d3b}, !- Design Specification Outdoor Air Object Name
  ,                                       !- Standards Building Type
  ;                                       !- Standards Space Type

OS:SpaceType,
  {38cfb561-32e3-43cd-84b8-29f4fc897b84}, !- Handle
  TH-2016-Edu-Daycare (through age 4),    !- Name
  ,                                       !- Default Construction Set Name
  ,                                       !- Default Schedule Set Name
  {be11773c-162f-4bc5-b670-d4a9c6b6c286}, !- Group Rendering Name
  {fb102458-ec3f-47c5-b6ab-3d3d3eda0cfc}, !- Design Specification Outdoor Air Object Name
  ,                                       !- Standards Building Type
  ;                                       !- Standards Space Type

OS:SpaceType,
  {f6278e0c-6fac-4355-bda7-baa23e2a9380}, !- Handle
  TH-2016-Edu-Daycare sickroom,           !- Name
  ,                                       !- Default Construction Set Name
  ,                                       !- Default Schedule Set Name
  {1666758a-e929-4841-b6c4-a2545630f222}, !- Group Rendering Name
  {18ddfe04-7673-4e46-8108-c4dbfbdce95c}, !- Design Specification Outdoor Air Object Name
  ,                                       !- Standards Building Type
  ;                                       !- Standards Space Type

OS:SpaceType,
  {bf1ef6c5-4d10-4ca3-a782-19bee07a44ce}, !- Handle
  TH-2016-Edu-Classroom (age 5-8),        !- Name
  ,                                       !- Default Construction Set Name
  ,                                       !- Default Schedule Set Name
  {31ddd522-c1d3-4d8a-8724-145e20a311eb}, !- Group Rendering Name
  {dc5941e1-70cc-4053-80f4-993ed2b9920f}, !- Design Specification Outdoor Air Object Name
  ,                                       !- Standards Building Type
  ;                                       !- Standards Space Type

OS:SpaceType,
  {7df09383-d297-4ff5-9ad5-42013351d789}, !- Handle
  TH-2016-Edu-Classroom (age9 plus),      !- Name
  ,                                       !- Default Construction Set Name
  ,                                       !- Default Schedule Set Name
  {f1a9947d-f0f0-4a5c-8481-8978d563a12f}, !- Group Rendering Name
  {33120cd6-5492-4a1c-955e-da6b991ff02a}, !- Design Specification Outdoor Air Object Name
  ,                                       !- Standards Building Type
  ;                                       !- Standards Space Type

OS:SpaceType,
  {1c9175df-3987-432a-a300-c187b93c5e34}, !- Handle
  TH-2016-Edu-Lecture classroom,          !- Name
  ,                                       !- Default Construction Set Name
  ,                                       !- Default Schedule Set Name
  {206b8684-27ec-496c-8585-0ccb285eb8ea}, !- Group Rendering Name
  {98ae6965-1584-44c8-83b6-b757deed7b18}, !- Design Specification Outdoor Air Object Name
  ,                                       !- Standards Building Type
  ;                                       !- Standards Space Type

OS:SpaceType,
  {44de88c4-9ecf-4497-b976-98f5fe8e15df}, !- Handle
  TH-2016-Edu-Lecture hall,               !- Name
  ,                                       !- Default Construction Set Name
  ,                                       !- Default Schedule Set Name
  {92f36832-b265-4b3b-bbb2-37de476b4e02}, !- Group Rendering Name
  {bcca08bb-cab6-4f7d-a446-65d472102252}, !- Design Specification Outdoor Air Object Name
  ,                                       !- Standards Building Type
  ;                                       !- Standards Space Type

OS:SpaceType,
  {f393e170-f33e-4f71-8f9f-cb8e0dd05cb5}, !- Handle
  TH-2016-Edu-Art classroom,              !- Name
  ,                                       !- Default Construction Set Name
  ,                                       !- Default Schedule Set Name
  {ee4baab6-4a47-471a-a772-4758f315753e}, !- Group Rendering Name
  {1491d312-f09c-47b0-95e4-f7c2ed3c09f7}, !- Design Specification Outdoor Air Object Name
  ,                                       !- Standards Building Type
  ;                                       !- Standards Space Type

OS:SpaceType,
  {bf5447d7-85f6-4abb-8b04-c7dafa6a860b}, !- Handle
  TH-2016-Edu-Science laboratory,         !- Name
  ,                                       !- Default Construction Set Name
  ,                                       !- Default Schedule Set Name
  {9847396a-93a3-4df0-adef-f96e1e6ae435}, !- Group Rendering Name
  {38297d75-8d4e-4fed-a331-8cc3c5b118ea}, !- Design Specification Outdoor Air Object Name
  ,                                       !- Standards Building Type
  ;                                       !- Standards Space Type

OS:SpaceType,
  {699bbd4d-af31-4223-9680-265db6bc78e2}, !- Handle
  TH-2016-Edu-University/College laboratory, !- Name
  ,                                       !- Default Construction Set Name
  ,                                       !- Default Schedule Set Name
  {e40091a0-fb3d-4d40-8d2e-9d17a14bd15a}, !- Group Rendering Name
  {3b7758dd-1483-4276-9795-9d7908f7571f}, !- Design Specification Outdoor Air Object Name
  ,                                       !- Standards Building Type
  ;                                       !- Standards Space Type

OS:SpaceType,
  {2a270b77-b438-4119-a1e5-01bbda832fdd}, !- Handle
  TH-2016-Edu-Wood/Metal shop,            !- Name
  ,                                       !- Default Construction Set Name
  ,                                       !- Default Schedule Set Name
  {2e5ab5f6-1611-41ae-855f-6643427d87eb}, !- Group Rendering Name
  {7476bc9f-715d-4ae9-bfdb-2062a02a3e1b}, !- Design Specification Outdoor Air Object Name
  ,                                       !- Standards Building Type
  ;                                       !- Standards Space Type

OS:SpaceType,
  {6e4598d6-1174-4525-b04b-71cdd55c166e}, !- Handle
  TH-2016-Edu-Computer lab,               !- Name
  ,                                       !- Default Construction Set Name
  ,                                       !- Default Schedule Set Name
  {2c634580-a2ef-4a1f-a69e-d34370fa2c98}, !- Group Rendering Name
  {e9614f05-b2f8-40b3-8dfb-4e193b976905}, !- Design Specification Outdoor Air Object Name
  ,                                       !- Standards Building Type
  ;                                       !- Standards Space Type

OS:SpaceType,
  {54b71a98-d757-4427-9ee7-885a75511204}, !- Handle
  TH-2016-Edu-Media center,               !- Name
  ,                                       !- Default Construction Set Name
  ,                                       !- Default Schedule Set Name
  {d911a548-7ceb-4e36-97c0-8797bc94127e}, !- Group Rendering Name
  {287ce1f6-efce-425f-b01b-834daa9ccf4f}, !- Design Specification Outdoor Air Object Name
  ,                                       !- Standards Building Type
  ;                                       !- Standards Space Type

OS:SpaceType,
  {9d1e3a9d-f733-4534-9500-0913535bc81f}, !- Handle
  TH-2016-Edu-Theater,                    !- Name
  ,                                       !- Default Construction Set Name
  ,                                       !- Default Schedule Set Name
  {9ce78e81-57c7-40e3-9cb1-e037a7b2d692}, !- Group Rendering Name
  {8df11164-b5f1-4aff-864f-afac6f07933c}, !- Design Specification Outdoor Air Object Name
  ,                                       !- Standards Building Type
  ;                                       !- Standards Space Type

OS:SpaceType,
  {b6073c2c-2a11-45ae-a160-a4c041b07025}, !- Handle
  TH-2016-Edu-Multipurpose,               !- Name
  ,                                       !- Default Construction Set Name
  ,                                       !- Default Schedule Set Name
  {9a012d42-a254-4d04-b5e7-e1f00eed7ce9}, !- Group Rendering Name
  {015f7270-3611-45e9-994d-4ec28cc5fc19}, !- Design Specification Outdoor Air Object Name
  ,                                       !- Standards Building Type
  ;                                       !- Standards Space Type

OS:SpaceType,
  {d704a479-8a5b-4eff-bc17-0d5da1b06773}, !- Handle
  TH-2016-Edu-Corridor,                   !- Name
  ,                                       !- Default Construction Set Name
  ,                                       !- Default Schedule Set Name
  {b4a1f084-a944-4b25-868c-fe73d3f5136b}, !- Group Rendering Name
  {0221a373-1406-4cbe-8115-fc1848a5ddcf}, !- Design Specification Outdoor Air Object Name
  ,                                       !- Standards Building Type
  ;                                       !- Standards Space Type

OS:SpaceType,
  {05214fc9-d1ee-459f-b1e0-1d30dc407504}, !- Handle
  TH-2016-Edu-Conference,                 !- Name
  ,                                       !- Default Construction Set Name
  ,                                       !- Default Schedule Set Name
  {1f257a70-7cad-4ab8-b354-e64c84f5c829}, !- Group Rendering Name
  {4a3fb834-e415-4081-bb1d-af7b63676230}, !- Design Specification Outdoor Air Object Name
  ,                                       !- Standards Building Type
  ;                                       !- Standards Space Type

OS:SpaceType,
  {df4daf66-add2-4c09-86f7-23bc6872d122}, !- Handle
  TH-2016-Edu-Office space,               !- Name
  ,                                       !- Default Construction Set Name
  ,                                       !- Default Schedule Set Name
  {a40918cf-8b28-4353-a962-b3c6e7efa238}, !- Group Rendering Name
  {7440b4db-9c76-4fa0-8a63-44404f332c1e}, !- Design Specification Outdoor Air Object Name
  ,                                       !- Standards Building Type
  ;                                       !- Standards Space Type

OS:SpaceType,
  {1766eda3-e1a8-4959-9741-fe255ab2c293}, !- Handle
  TH-2016-Edu-Breakroom,                  !- Name
  ,                                       !- Default Construction Set Name
  ,                                       !- Default Schedule Set Name
  {3ba19104-5372-4241-827d-bb676cc98d40}, !- Group Rendering Name
  {431cf1ce-9121-49eb-a220-5392eed9f842}, !- Design Specification Outdoor Air Object Name
  ,                                       !- Standards Building Type
  ;                                       !- Standards Space Type

OS:SpaceType,
  {0d562696-88fa-47a9-b5aa-73ae3e2c7509}, !- Handle
  TH-2016-Edu-Coffee station,             !- Name
  ,                                       !- Default Construction Set Name
  ,                                       !- Default Schedule Set Name
  {c042145e-8cb1-412c-b407-3a14eda6e6aa}, !- Group Rendering Name
  {798d69fc-b46c-42b7-8bb3-105f3576bcea}, !- Design Specification Outdoor Air Object Name
  ,                                       !- Standards Building Type
  ;                                       !- Standards Space Type

OS:SpaceType,
  {ecf2faae-ae3b-4186-8aa4-8a0a93631e95}, !- Handle
  TH-2016-Edu-Fast-food dining,           !- Name
  ,                                       !- Default Construction Set Name
  ,                                       !- Default Schedule Set Name
  {c5d79ff3-c998-4551-8681-6783c9eeaaed}, !- Group Rendering Name
  {bd7d9b7a-ef93-43e3-96e3-6395f69da1aa}, !- Design Specification Outdoor Air Object Name
  ,                                       !- Standards Building Type
  ;                                       !- Standards Space Type

OS:SpaceType,
  {2b9cb3b2-fa6c-4e47-80db-af7dd8e1f626}, !- Handle
  TH-2016-Office-Lobby,                   !- Name
  ,                                       !- Default Construction Set Name
  ,                                       !- Default Schedule Set Name
  {16e0ef66-1309-41f8-9938-0f87f61a12f9}, !- Group Rendering Name
  {afd88646-3bc2-4253-b73d-012e2a32b86f}, !- Design Specification Outdoor Air Object Name
  ,                                       !- Standards Building Type
  ;                                       !- Standards Space Type

OS:SpaceType,
  {a082fa58-bda5-4194-94c3-2ffb5aaafe48}, !- Handle
  TH-2016-Office-Storage,                 !- Name
  ,                                       !- Default Construction Set Name
  ,                                       !- Default Schedule Set Name
  {bf106899-3013-4023-b299-ac0046aa3fba}, !- Group Rendering Name
  {58935495-5da5-40f6-8568-e773c82e22dc}, !- Design Specification Outdoor Air Object Name
  ,                                       !- Standards Building Type
  ;                                       !- Standards Space Type

OS:SpaceType,
  {b72506a4-e5bd-4fc1-a20f-5cf25b714f95}, !- Handle
  TH-2016-Office-Office space,            !- Name
  ,                                       !- Default Construction Set Name
  ,                                       !- Default Schedule Set Name
  {23fac95d-56b8-4ff2-99a2-cfd6033c462c}, !- Group Rendering Name
  {8dd05134-cc4d-489a-bc5b-4667e24f74d7}, !- Design Specification Outdoor Air Object Name
  ,                                       !- Standards Building Type
  ;                                       !- Standards Space Type

OS:SpaceType,
  {2e66f31d-b403-45c8-8513-21c790ae894f}, !- Handle
  TH-2016-Office-Reception area,          !- Name
  ,                                       !- Default Construction Set Name
  ,                                       !- Default Schedule Set Name
  {c5c98e90-0711-471e-b187-5922cff521c2}, !- Group Rendering Name
  {ae362efc-7cad-4a67-bb29-3082e66c7b6a}, !- Design Specification Outdoor Air Object Name
  ,                                       !- Standards Building Type
  ;                                       !- Standards Space Type

OS:SpaceType,
  {b1c788d8-4d53-4c7f-9b3e-7773be839a65}, !- Handle
  TH-2016-Office-Telephone/data entry,    !- Name
  ,                                       !- Default Construction Set Name
  ,                                       !- Default Schedule Set Name
  {b28cb2eb-df91-4943-9616-8951290acb72}, !- Group Rendering Name
  {fbf0eefc-9df9-4b25-ab27-f25fe8bd6640}, !- Design Specification Outdoor Air Object Name
  ,                                       !- Standards Building Type
  ;                                       !- Standards Space Type

OS:SpaceType,
  {69a1669b-642f-40ea-8062-801f9ebfc4c9}, !- Handle
  TH-2016-Office-Conference,              !- Name
  ,                                       !- Default Construction Set Name
  ,                                       !- Default Schedule Set Name
  {938794c3-8474-49a9-aa17-52d8124bc358}, !- Group Rendering Name
  {be999678-5b83-4694-89ec-7e35dfd69ebd}, !- Design Specification Outdoor Air Object Name
  ,                                       !- Standards Building Type
  ;                                       !- Standards Space Type

OS:SpaceType,
  {5c7ea6f0-cabe-4db8-b10b-3ff527734588}, !- Handle
  TH-2016-Office-Corridor,                !- Name
  ,                                       !- Default Construction Set Name
  ,                                       !- Default Schedule Set Name
  {6a167552-63e8-4b41-8d5b-1c2844eca0e0}, !- Group Rendering Name
  {0d790f9d-7b04-40d3-b8d1-45c107e1ffbc}, !- Design Specification Outdoor Air Object Name
  ,                                       !- Standards Building Type
  ;                                       !- Standards Space Type

OS:SpaceType,
  {caa3e8a0-596c-447c-8f9a-416ffc08a4c5}, !- Handle
  TH-2016-Office-Computer,                !- Name
  ,                                       !- Default Construction Set Name
  ,                                       !- Default Schedule Set Name
  {782dfa02-f0d1-4485-8890-707a9f24b237}, !- Group Rendering Name
  {247ebbd4-59ee-4134-8bf5-011563dc44b7}, !- Design Specification Outdoor Air Object Name
  ,                                       !- Standards Building Type
  ;                                       !- Standards Space Type

OS:SpaceType,
  {a2161c92-f10f-42dc-8c6e-f19ba9247213}, !- Handle
  TH-2016-Office-Coffee station,          !- Name
  ,                                       !- Default Construction Set Name
  ,                                       !- Default Schedule Set Name
  {8f670a5c-4236-43df-86ae-f3d7d738b274}, !- Group Rendering Name
  {d16259ac-9468-479c-b22f-e73130e7404d}, !- Design Specification Outdoor Air Object Name
  ,                                       !- Standards Building Type
  ;                                       !- Standards Space Type

OS:SpaceType,
  {e6b6098b-5021-4af0-aabd-5118c8f4a0d8}, !- Handle
  TH-2016-Office-Fast food dining,        !- Name
  ,                                       !- Default Construction Set Name
  ,                                       !- Default Schedule Set Name
  {795b86a2-f893-4798-9788-f92cd6167970}, !- Group Rendering Name
  {5861781b-954c-4cc1-93a2-4e1548ef2453}, !- Design Specification Outdoor Air Object Name
  ,                                       !- Standards Building Type
  ;                                       !- Standards Space Type

OS:SpaceType,
  {421e4f43-14a4-47b8-9b62-d4c9773b5dfb}, !- Handle
  TH-2016-Con-Dwelling unit,              !- Name
  ,                                       !- Default Construction Set Name
  ,                                       !- Default Schedule Set Name
  {a77a54eb-db2c-4833-98cc-f9d5f5285133}, !- Group Rendering Name
  {8ef62ab7-09db-4f49-bd7e-54c3b04ef619}, !- Design Specification Outdoor Air Object Name
  ,                                       !- Standards Building Type
  ;                                       !- Standards Space Type

OS:SpaceType,
  {4618e6f4-3f57-4067-b90c-016dfc4b9bc7}, !- Handle
  TH-2016-Con-Corridor,                   !- Name
  ,                                       !- Default Construction Set Name
  ,                                       !- Default Schedule Set Name
  {015a33cc-9df8-4d5e-ad8b-a56440120002}, !- Group Rendering Name
  {2cd7087c-02ea-4079-89e8-dca5fdbcb924}, !- Design Specification Outdoor Air Object Name
  ,                                       !- Standards Building Type
  ;                                       !- Standards Space Type

OS:SpaceType,
  {53a2d697-d79d-4fb1-a40a-283265b28552}, !- Handle
  TH-2016-Con-Lobby,                      !- Name
  ,                                       !- Default Construction Set Name
  ,                                       !- Default Schedule Set Name
  {7ba97284-920b-4aa4-bdbc-3f8c9678effb}, !- Group Rendering Name
  {78f486f3-bfbc-4e65-a0cc-3aa1a47ff16b}, !- Design Specification Outdoor Air Object Name
  ,                                       !- Standards Building Type
  ;                                       !- Standards Space Type

OS:SpaceType,
  {1ff192fe-3833-4ec0-9344-7bc4dc15bd29}, !- Handle
  TH-2016-Con-Office space,               !- Name
  ,                                       !- Default Construction Set Name
  ,                                       !- Default Schedule Set Name
  {c43d8ef6-4ae2-4197-a1a9-afbf545a4719}, !- Group Rendering Name
  {d5149543-31d3-471b-bd77-8a52a6c992d1}, !- Design Specification Outdoor Air Object Name
  ,                                       !- Standards Building Type
  ;                                       !- Standards Space Type

OS:SpaceType,