
OS:Version,
  {efb621f7-086c-4d66-9582-6bb3ee0033b6}, !- Handle
  1.3.3;                                  !- Version Identifier

OS:Construction,
  {d07be11b-34a3-4a39-8c0b-491703240ed3}, !- Handle
  ASHRAE 189.1-2009 AtticFloor ClimateZone 1-8, !- Name
  ,                                       !- Surface Rendering Name
  {b998ef26-7a40-4686-83a5-a868548bae8e}, !- Layer 1
  {949e014f-67fc-4fd6-9b45-c8d89b8dc088}, !- Layer 2
  {b998ef26-7a40-4686-83a5-a868548bae8e}; !- Layer 3

OS:StandardsInformation:Construction,
  {d52541e6-7814-49a6-8d8a-6f060addae2d}, !- Handle
  {d07be11b-34a3-4a39-8c0b-491703240ed3}, !- Construction Name
  AtticFloor,                             !- Intended Surface Type
  WoodFramed;                             !- Standards Construction Type

OS:Material,
  {b998ef26-7a40-4686-83a5-a868548bae8e}, !- Handle
  1/2IN Gypsum,                           !- Name
  Smooth,                                 !- Roughness
  0.0127,                                 !- Thickness {m}
  0.16,                                   !- Conductivity {W/m-K}
  784.9,                                  !- Density {kg/m3}
  830.000000000001,                       !- Specific Heat {J/kg-K}
  0.9,                                    !- Thermal Absorptance
  0.4,                                    !- Solar Absorptance
  0.4;                                    !- Visible Absorptance

OS:Material,
  {949e014f-67fc-4fd6-9b45-c8d89b8dc088}, !- Handle
  AtticFloor Insulation,                  !- Name
  MediumRough,                            !- Roughness
  0.2379,                                 !- Thickness {m}
  0.049,                                  !- Conductivity {W/m-K}
  265,                                    !- Density {kg/m3}
  836.800000000001,                       !- Specific Heat {J/kg-K}
  0.9,                                    !- Thermal Absorptance
  0.7,                                    !- Solar Absorptance
  0.7;                                    !- Visible Absorptance

OS:Construction,
  {3e8ae4b8-2f3b-4457-8607-4d8694a85ab2}, !- Handle
  ASHRAE 189.1-2009 ExtRoof IEAD ClimateZone 1, !- Name
  ,                                       !- Surface Rendering Name
  {5f1409f7-5f6d-403d-953d-7e5830509bc2}, !- Layer 1
  {d183ba71-170c-4950-ab94-113b42231c9c}, !- Layer 2
  {d9c0ee36-832a-4ed4-b32a-d6dc6a034e0c}; !- Layer 3

OS:StandardsInformation:Construction,
  {01d614fe-65eb-4c33-a9a3-30543f31d482}, !- Handle
  {3e8ae4b8-2f3b-4457-8607-4d8694a85ab2}, !- Construction Name
  ExteriorRoof,                           !- Intended Surface Type
  IEAD;                                   !- Standards Construction Type

OS:Material,
  {5f1409f7-5f6d-403d-953d-7e5830509bc2}, !- Handle
  Roof Membrane,                          !- Name
  VeryRough,                              !- Roughness
  0.0095,                                 !- Thickness {m}
  0.16,                                   !- Conductivity {W/m-K}
  1121.29,                                !- Density {kg/m3}
  1460,                                   !- Specific Heat {J/kg-K}
  0.9,                                    !- Thermal Absorptance
  0.7,                                    !- Solar Absorptance
  0.7;                                    !- Visible Absorptance

OS:Material,
  {d183ba71-170c-4950-ab94-113b42231c9c}, !- Handle
  Roof Insulation [18],                   !- Name
  MediumRough,                            !- Roughness
  0.1693,                                 !- Thickness {m}
  0.049,                                  !- Conductivity {W/m-K}
  265,                                    !- Density {kg/m3}
  836.800000000001,                       !- Specific Heat {J/kg-K}
  0.9,                                    !- Thermal Absorptance
  0.7,                                    !- Solar Absorptance
  0.7;                                    !- Visible Absorptance

OS:Material,
  {d9c0ee36-832a-4ed4-b32a-d6dc6a034e0c}, !- Handle
  Metal Decking,                          !- Name
  MediumSmooth,                           !- Roughness
  0.0015,                                 !- Thickness {m}
  45.006,                                 !- Conductivity {W/m-K}
  7680,                                   !- Density {kg/m3}
  418.4,                                  !- Specific Heat {J/kg-K}
  0.9,                                    !- Thermal Absorptance
  0.6,                                    !- Solar Absorptance
  0.6;                                    !- Visible Absorptance

OS:Construction,
  {6866682c-6340-401a-a259-a11f31056473}, !- Handle
  ASHRAE 189.1-2009 ExtRoof IEAD ClimateZone 2-5, !- Name
  ,                                       !- Surface Rendering Name
  {5f1409f7-5f6d-403d-953d-7e5830509bc2}, !- Layer 1
  {bb284f13-f201-426f-a3cf-04fba640f84d}, !- Layer 2
  {d9c0ee36-832a-4ed4-b32a-d6dc6a034e0c}; !- Layer 3

OS:StandardsInformation:Construction,
  {3822ab1e-bd5a-4729-b426-1c9ee6d12e64}, !- Handle
  {6866682c-6340-401a-a259-a11f31056473}, !- Construction Name
  ExteriorRoof,                           !- Intended Surface Type
  IEAD;                                   !- Standards Construction Type

OS:Material,
  {bb284f13-f201-426f-a3cf-04fba640f84d}, !- Handle
  Roof Insulation [21],                   !- Name
  MediumRough,                            !- Roughness
  0.2105,                                 !- Thickness {m}
  0.049,                                  !- Conductivity {W/m-K}
  265,                                    !- Density {kg/m3}
  836.800000000001,                       !- Specific Heat {J/kg-K}
  0.9,                                    !- Thermal Absorptance
  0.7,                                    !- Solar Absorptance
  0.7;                                    !- Visible Absorptance

OS:Construction,
  {946d76e2-d912-4655-b8b4-06a8c4445da8}, !- Handle
  ASHRAE 189.1-2009 ExtRoof IEAD ClimateZone 6, !- Name
  ,                                       !- Surface Rendering Name
  {5f1409f7-5f6d-403d-953d-7e5830509bc2}, !- Layer 1
  {6c641804-c39e-4135-b950-56763b539d5f}, !- Layer 2
  {d9c0ee36-832a-4ed4-b32a-d6dc6a034e0c}; !- Layer 3

OS:StandardsInformation:Construction,
  {f2357081-3ae4-4752-a2c3-d50e8fe68f38}, !- Handle
  {946d76e2-d912-4655-b8b4-06a8c4445da8}, !- Construction Name
  ExteriorRoof,                           !- Intended Surface Type
  IEAD;                                   !- Standards Construction Type

OS:Material,
  {6c641804-c39e-4135-b950-56763b539d5f}, !- Handle
  Roof Insulation [24],                   !- Name
  MediumRough,                            !- Roughness
  0.260100000000001,                      !- Thickness {m}
  0.049,                                  !- Conductivity {W/m-K}
  265,                                    !- Density {kg/m3}
  836.800000000001,                       !- Specific Heat {J/kg-K}
  0.9,                                    !- Thermal Absorptance
  0.7,                                    !- Solar Absorptance
  0.7;                                    !- Visible Absorptance

OS:Construction,
  {b8aa4edf-f2f1-4876-9d71-9cf555ab34b1}, !- Handle
  ASHRAE 189.1-2009 ExtRoof IEAD ClimateZone 7-8, !- Name
  ,                                       !- Surface Rendering Name
  {5f1409f7-5f6d-403d-953d-7e5830509bc2}, !- Layer 1
  {ffda5cce-c299-4b38-b549-33d295f9b830}, !- Layer 2
  {d9c0ee36-832a-4ed4-b32a-d6dc6a034e0c}; !- Layer 3

OS:StandardsInformation:Construction,
  {f95c9fe3-ceb8-4d71-893c-6f5804a409f4}, !- Handle
  {b8aa4edf-f2f1-4876-9d71-9cf555ab34b1}, !- Construction Name
  ExteriorRoof,                           !- Intended Surface Type
  IEAD;                                   !- Standards Construction Type

OS:Material,
  {ffda5cce-c299-4b38-b549-33d295f9b830}, !- Handle
  Roof Insulation [26],                   !- Name
  MediumRough,                            !- Roughness
  0.2941,                                 !- Thickness {m}
  0.049,                                  !- Conductivity {W/m-K}
  265,                                    !- Density {kg/m3}
  836.800000000001,                       !- Specific Heat {J/kg-K}
  0.9,                                    !- Thermal Absorptance
  0.7,                                    !- Solar Absorptance
  0.7;                                    !- Visible Absorptance

OS:Construction,
  {2f4925c2-6ced-4d3d-b55f-c7b644dcc53d}, !- Handle
  ASHRAE 189.1-2009 ExtRoof Metal ClimateZone 1, !- Name
  ,                                       !- Surface Rendering Name
  {ec45dc99-a192-4851-aa62-1d797388f342}, !- Layer 1
  {d6e5eb9b-2ab8-4f4d-9d7b-9eff1dd7c610}, !- Layer 2
  {d9c0ee36-832a-4ed4-b32a-d6dc6a034e0c}; !- Layer 3

OS:StandardsInformation:Construction,
  {626c7ad6-4bdb-42e9-a63e-05a9c0a11f27}, !- Handle
  {2f4925c2-6ced-4d3d-b55f-c7b644dcc53d}, !- Construction Name
  ExteriorRoof,                           !- Intended Surface Type
  Metal;                                  !- Standards Construction Type

OS:Material,
  {ec45dc99-a192-4851-aa62-1d797388f342}, !- Handle
  Metal Roofing,                          !- Name
  MediumSmooth,                           !- Roughness
  0.0015,                                 !- Thickness {m}
  45.006,                                 !- Conductivity {W/m-K}
  7680,                                   !- Density {kg/m3}
  418.4,                                  !- Specific Heat {J/kg-K}
  0.9,                                    !- Thermal Absorptance
  0.6,                                    !- Solar Absorptance
  0.6;                                    !- Visible Absorptance

OS:Material,
  {d6e5eb9b-2ab8-4f4d-9d7b-9eff1dd7c610}, !- Handle
  Roof Insulation [19],                   !- Name
  MediumRough,                            !- Roughness
  0.1868,                                 !- Thickness {m}
  0.049,                                  !- Conductivity {W/m-K}
  265,                                    !- Density {kg/m3}
  836.800000000001,                       !- Specific Heat {J/kg-K}
  0.9,                                    !- Thermal Absorptance
  0.7,                                    !- Solar Absorptance
  0.7;                                    !- Visible Absorptance

OS:Construction,
  {9100cd9a-331a-4b3d-bee0-df2b997bf884}, !- Handle
  ASHRAE 189.1-2009 ExtRoof Metal ClimateZone 2-5, !- Name
  ,                                       !- Surface Rendering Name
  {ec45dc99-a192-4851-aa62-1d797388f342}, !- Layer 1
  {6f6a70ba-fa32-4a53-a9bd-17309c66e822}, !- Layer 2
  {d9c0ee36-832a-4ed4-b32a-d6dc6a034e0c}; !- Layer 3

OS:StandardsInformation:Construction,
  {ed03e6fa-bb03-41c4-8626-cc6d42c267e7}, !- Handle
  {9100cd9a-331a-4b3d-bee0-df2b997bf884}, !- Construction Name
  ExteriorRoof,                           !- Intended Surface Type
  Metal;                                  !- Standards Construction Type

OS:Material,
  {6f6a70ba-fa32-4a53-a9bd-17309c66e822}, !- Handle
  Roof Insulation [22],                   !- Name
  MediumRough,                            !- Roughness
  0.2358,                                 !- Thickness {m}
  0.049,                                  !- Conductivity {W/m-K}
  265,                                    !- Density {kg/m3}
  836.800000000001,                       !- Specific Heat {J/kg-K}
  0.9,                                    !- Thermal Absorptance
  0.7,                                    !- Solar Absorptance
  0.7;                                    !- Visible Absorptance

OS:Construction,
  {0c48164a-5b18-4c1f-bfcc-dad9864e382e}, !- Handle
  ASHRAE 189.1-2009 ExtRoof Metal ClimateZone 6, !- Name
  ,                                       !- Surface Rendering Name
  {ec45dc99-a192-4851-aa62-1d797388f342}, !- Layer 1
  {f410f48f-2af8-4717-99e6-30c2a2d203c7}, !- Layer 2
  {d9c0ee36-832a-4ed4-b32a-d6dc6a034e0c}; !- Layer 3

OS:StandardsInformation:Construction,
  {21696970-e24a-4d33-bdc3-2b42380c0825}, !- Handle
  {0c48164a-5b18-4c1f-bfcc-dad9864e382e}, !- Construction Name
  ExteriorRoof,                           !- Intended Surface Type
  Metal;                                  !- Standards Construction Type

OS:Material,
  {f410f48f-2af8-4717-99e6-30c2a2d203c7}, !- Handle
  Roof Insulation [25],                   !- Name
  MediumRough,                            !- Roughness
  0.263,                                  !- Thickness {m}
  0.049,                                  !- Conductivity {W/m-K}
  265,                                    !- Density {kg/m3}
  836.800000000001,                       !- Specific Heat {J/kg-K}
  0.9,                                    !- Thermal Absorptance
  0.7,                                    !- Solar Absorptance
  0.7;                                    !- Visible Absorptance

OS:Construction,
  {b9e17f65-284d-4f79-8ec5-092626438698}, !- Handle
  ASHRAE 189.1-2009 ExtRoof Metal ClimateZone 7-8, !- Name
  ,                                       !- Surface Rendering Name
  {ec45dc99-a192-4851-aa62-1d797388f342}, !- Layer 1
  {ce23dedf-f03b-4c0d-aa25-5bd2b5838fa2}, !- Layer 2
  {d9c0ee36-832a-4ed4-b32a-d6dc6a034e0c}; !- Layer 3

OS:StandardsInformation:Construction,
  {ff9d4fe1-0d45-4470-94ba-8bfc295d22aa}, !- Handle
  {b9e17f65-284d-4f79-8ec5-092626438698}, !- Construction Name
  ExteriorRoof,                           !- Intended Surface Type
  Metal;                                  !- Standards Construction Type

OS:Material,
  {ce23dedf-f03b-4c0d-aa25-5bd2b5838fa2}, !- Handle
  Roof Insulation [27],                   !- Name
  MediumRough,                            !- Roughness
  0.297000000000001,                      !- Thickness {m}
  0.049,                                  !- Conductivity {W/m-K}
  265,                                    !- Density {kg/m3}
  836.800000000001,                       !- Specific Heat {J/kg-K}
  0.9,                                    !- Thermal Absorptance
  0.7,                                    !- Solar Absorptance
  0.7;                                    !- Visible Absorptance

OS:Construction,
  {437005be-57a2-437f-8b5a-09be171a733e}, !- Handle
  ASHRAE 189.1-2009 ExtWall Mass ClimateZone 1, !- Name
  ,                                       !- Surface Rendering Name
  {44994b4a-59b6-46db-ba2c-2c8515ef18fa}, !- Layer 1
  {644ae7a0-b8a0-4981-bec3-1066834cd9a1}, !- Layer 2
  {e5c2a29e-5bdb-4ff6-a619-40fc188a261c}, !- Layer 3
  {b998ef26-7a40-4686-83a5-a868548bae8e}; !- Layer 4

OS:StandardsInformation:Construction,
  {6ee8412f-4588-41fa-bcb6-9c103c38de03}, !- Handle
  {437005be-57a2-437f-8b5a-09be171a733e}, !- Construction Name
  ExteriorWall,                           !- Intended Surface Type
  Mass;                                   !- Standards Construction Type

OS:Material,
  {44994b4a-59b6-46db-ba2c-2c8515ef18fa}, !- Handle
  1IN Stucco,                             !- Name
  Smooth,                                 !- Roughness
  0.0253,                                 !- Thickness {m}
  0.691799999999999,                      !- Conductivity {W/m-K}
  1858,                                   !- Density {kg/m3}
  836.999999999999,                       !- Specific Heat {J/kg-K}
  0.9,                                    !- Thermal Absorptance
  0.92,                                   !- Solar Absorptance
  0.92;                                   !- Visible Absorptance

OS:Material,
  {644ae7a0-b8a0-4981-bec3-1066834cd9a1}, !- Handle
  8IN Concrete HW,                        !- Name
  MediumRough,                            !- Roughness
  0.2033,                                 !- Thickness {m}
  1.72959999999999,                       !- Conductivity {W/m-K}
  2242.99999999999,                       !- Density {kg/m3}
  836.999999999999,                       !- Specific Heat {J/kg-K}
  0.9,                                    !- Thermal Absorptance
  0.65,                                   !- Solar Absorptance
  0.65;                                   !- Visible Absorptance

OS:Material,
  {e5c2a29e-5bdb-4ff6-a619-40fc188a261c}, !- Handle
  Wall Insulation [31],                   !- Name
  MediumRough,                            !- Roughness
  0.0337000000000001,                     !- Thickness {m}
  0.0432,                                 !- Conductivity {W/m-K}
  91,                                     !- Density {kg/m3}
  836.999999999999,                       !- Specific Heat {J/kg-K}
  0.9,                                    !- Thermal Absorptance
  0.5,                                    !- Solar Absorptance
  0.5;                                    !- Visible Absorptance

OS:Construction,
  {b54ea714-23d7-430f-9bc2-fa409db256b4}, !- Handle
  ASHRAE 189.1-2009 ExtWall Mass ClimateZone 2, !- Name
  ,                                       !- Surface Rendering Name
  {44994b4a-59b6-46db-ba2c-2c8515ef18fa}, !- Layer 1
  {644ae7a0-b8a0-4981-bec3-1066834cd9a1}, !- Layer 2
  {c20c9d66-ac44-48d3-88ab-dc161e351cd7}, !- Layer 3
  {b998ef26-7a40-4686-83a5-a868548bae8e}; !- Layer 4

OS:StandardsInformation:Construction,
  {9982188c-3832-4dae-bd2c-eadded151421}, !- Handle
  {b54ea714-23d7-430f-9bc2-fa409db256b4}, !- Construction Name
  ExteriorWall,                           !- Intended Surface Type
  Mass;                                   !- Standards Construction Type

OS:Material,
  {c20c9d66-ac44-48d3-88ab-dc161e351cd7}, !- Handle
  Wall Insulation [35],                   !- Name
  MediumRough,                            !- Roughness
  0.0452,                                 !- Thickness {m}
  0.0432,                                 !- Conductivity {W/m-K}
  91,                                     !- Density {kg/m3}
  836.999999999999,                       !- Specific Heat {J/kg-K}
  0.9,                                    !- Thermal Absorptance
  0.5,                                    !- Solar Absorptance
  0.5;                                    !- Visible Absorptance

OS:Construction,
  {8b04c2c3-3901-4993-b737-74ade2448b63}, !- Handle
  ASHRAE 189.1-2009 ExtWall Mass ClimateZone 3, !- Name
  ,                                       !- Surface Rendering Name
  {44994b4a-59b6-46db-ba2c-2c8515ef18fa}, !- Layer 1
  {644ae7a0-b8a0-4981-bec3-1066834cd9a1}, !- Layer 2
  {87b6980a-767e-41cb-994d-00e18fb23016}, !- Layer 3
  {b998ef26-7a40-4686-83a5-a868548bae8e}; !- Layer 4

OS:StandardsInformation:Construction,
  {c80ca0a7-49ad-4997-a802-741ebab910c3}, !- Handle
  {8b04c2c3-3901-4993-b737-74ade2448b63}, !- Construction Name
  ExteriorWall,                           !- Intended Surface Type
  Mass;                                   !- Standards Construction Type

OS:Material,
  {87b6980a-767e-41cb-994d-00e18fb23016}, !- Handle
  Wall Insulation [36],                   !- Name
  MediumRough,                            !- Roughness
  0.0565999999999999,                     !- Thickness {m}
  0.0432,                                 !- Conductivity {W/m-K}
  91,                                     !- Density {kg/m3}
  836.999999999999,                       !- Specific Heat {J/kg-K}
  0.9,                                    !- Thermal Absorptance
  0.5,                                    !- Solar Absorptance
  0.5;                                    !- Visible Absorptance

OS:Construction,
  {e1ae10a6-1ef3-4599-9efd-c5c12f3a8da6}, !- Handle
  ASHRAE 189.1-2009 ExtWall Mass ClimateZone 4, !- Name
  ,                                       !- Surface Rendering Name
  {44994b4a-59b6-46db-ba2c-2c8515ef18fa}, !- Layer 1
  {644ae7a0-b8a0-4981-bec3-1066834cd9a1}, !- Layer 2
  {c10971f6-fb37-42f7-8044-f0f39432d1cb}, !- Layer 3
  {b998ef26-7a40-4686-83a5-a868548bae8e}; !- Layer 4

OS:StandardsInformation:Construction,
  {054cdf89-3d47-428f-8754-8536e03c3acb}, !- Handle
  {e1ae10a6-1ef3-4599-9efd-c5c12f3a8da6}, !- Construction Name
  ExteriorWall,                           !- Intended Surface Type
  Mass;                                   !- Standards Construction Type

OS:Material,
  {c10971f6-fb37-42f7-8044-f0f39432d1cb}, !- Handle
  Wall Insulation [37],                   !- Name
  MediumRough,                            !- Roughness
  0.0680999999999999,                     !- Thickness {m}
  0.0432,                                 !- Conductivity {W/m-K}
  91,                                     !- Density {kg/m3}
  836.999999999999,                       !- Specific Heat {J/kg-K}
  0.9,                                    !- Thermal Absorptance
  0.5,                                    !- Solar Absorptance
  0.5;                                    !- Visible Absorptance

OS:Construction,
  {467851cc-1855-43c0-a73b-cd8a67ac66c5}, !- Handle
  ASHRAE 189.1-2009 ExtWall Mass ClimateZone 5, !- Name
  ,                                       !- Surface Rendering Name
  {44994b4a-59b6-46db-ba2c-2c8515ef18fa}, !- Layer 1
  {644ae7a0-b8a0-4981-bec3-1066834cd9a1}, !- Layer 2
  {dd562cd3-fcca-4380-bcf4-942151985c77}, !- Layer 3
  {b998ef26-7a40-4686-83a5-a868548bae8e}; !- Layer 4

OS:StandardsInformation:Construction,
  {59ad3e76-bb20-44f6-9eee-ad65fa923bba}, !- Handle
  {467851cc-1855-43c0-a73b-cd8a67ac66c5}, !- Construction Name
  ExteriorWall,                           !- Intended Surface Type
  Mass;                                   !- Standards Construction Type

OS:Material,
  {dd562cd3-fcca-4380-bcf4-942151985c77}, !- Handle
  Wall Insulation [40],                   !- Name
  MediumRough,                            !- Roughness
  0.0793999999999999,                     !- Thickness {m}
  0.0432,                                 !- Conductivity {W/m-K}
  91,                                     !- Density {kg/m3}
  836.999999999999,                       !- Specific Heat {J/kg-K}
  0.9,                                    !- Thermal Absorptance
  0.5,                                    !- Solar Absorptance
  0.5;                                    !- Visible Absorptance

OS:Construction,
  {bd1fe719-b8fa-4214-a31e-9a83e22c591c}, !- Handle
  ASHRAE 189.1-2009 ExtWall Mass ClimateZone 6, !- Name
  ,                                       !- Surface Rendering Name
  {44994b4a-59b6-46db-ba2c-2c8515ef18fa}, !- Layer 1
  {644ae7a0-b8a0-4981-bec3-1066834cd9a1}, !- Layer 2
  {fb74c40d-f410-4a52-8b6e-343010242465}, !- Layer 3
  {b998ef26-7a40-4686-83a5-a868548bae8e}; !- Layer 4

OS:StandardsInformation:Construction,
  {0f698b5c-f5f9-4bc5-aff7-0a8ccc0c76f0}, !- Handle
  {bd1fe719-b8fa-4214-a31e-9a83e22c591c}, !- Construction Name
  ExteriorWall,                           !- Intended Surface Type
  Mass;                                   !- Standards Construction Type

OS:Material,
  {fb74c40d-f410-4a52-8b6e-343010242465}, !- Handle
  Wall Insulation [42],                   !- Name
  MediumRough,                            !- Roughness
  0.0913999999999999,                     !- Thickness {m}
  0.0432,                                 !- Conductivity {W/m-K}
  91,                                     !- Density {kg/m3}
  836.999999999999,                       !- Specific Heat {J/kg-K}
  0.9,                                    !- Thermal Absorptance
  0.5,                                    !- Solar Absorptance
  0.5;                                    !- Visible Absorptance

OS:Construction,
  {1b4d8161-2e12-456b-9eb3-39a51cb904e0}, !- Handle
  ASHRAE 189.1-2009 ExtWall Mass ClimateZone 7-8, !- Name
  ,                                       !- Surface Rendering Name
  {44994b4a-59b6-46db-ba2c-2c8515ef18fa}, !- Layer 1
  {644ae7a0-b8a0-4981-bec3-1066834cd9a1}, !- Layer 2
  {2f59c65f-d529-40a5-bc2f-b76a43d148d4}, !- Layer 3
  {b998ef26-7a40-4686-83a5-a868548bae8e}; !- Layer 4

OS:StandardsInformation:Construction,
  {3ec42bda-2622-409f-9a60-c19a2ee8d662}, !- Handle
  {1b4d8161-2e12-456b-9eb3-39a51cb904e0}, !- Construction Name
  ExteriorWall,                           !- Intended Surface Type
  Mass;                                   !- Standards Construction Type

OS:Material,
  {2f59c65f-d529-40a5-bc2f-b76a43d148d4}, !- Handle
  Wall Insulation [44],                   !- Name
  MediumRough,                            !- Roughness
  0.1104,                                 !- Thickness {m}
  0.0432,                                 !- Conductivity {W/m-K}
  91,                                     !- Density {kg/m3}
  836.999999999999,                       !- Specific Heat {J/kg-K}
  0.9,                                    !- Thermal Absorptance
  0.5,                                    !- Solar Absorptance
  0.5;                                    !- Visible Absorptance

OS:Construction,
  {c168f79a-fdbc-412c-b53a-27bc625414c3}, !- Handle
  ASHRAE 189.1-2009 ExtWall Mass ClimateZone alt-res 1, !- Name
  ,                                       !- Surface Rendering Name
  {44994b4a-59b6-46db-ba2c-2c8515ef18fa}, !- Layer 1
  {644ae7a0-b8a0-4981-bec3-1066834cd9a1}, !- Layer 2
  {c20c9d66-ac44-48d3-88ab-dc161e351cd7}, !- Layer 3
  {b998ef26-7a40-4686-83a5-a868548bae8e}; !- Layer 4

OS:StandardsInformation:Construction,
  {8d63bf31-eca0-46f9-ba88-2fa374774b21}, !- Handle
  {c168f79a-fdbc-412c-b53a-27bc625414c3}, !- Construction Name
  ExteriorWall,                           !- Intended Surface Type
  Mass;                                   !- Standards Construction Type

OS:Construction,
  {243d51aa-f89d-4544-8dd0-dd278789d113}, !- Handle
  ASHRAE 189.1-2009 ExtWall Mass ClimateZone alt-res 2, !- Name
  ,                                       !- Surface Rendering Name
  {44994b4a-59b6-46db-ba2c-2c8515ef18fa}, !- Layer 1
  {644ae7a0-b8a0-4981-bec3-1066834cd9a1}, !- Layer 2
  {87b6980a-767e-41cb-994d-00e18fb23016}, !- Layer 3
  {b998ef26-7a40-4686-83a5-a868548bae8e}; !- Layer 4

OS:StandardsInformation:Construction,
  {14368629-2874-4e9e-b032-310b8f68787b}, !- Handle
  {243d51aa-f89d-4544-8dd0-dd278789d113}, !- Construction Name
  ExteriorWall,                           !- Intended Surface Type
  Mass;                                   !- Standards Construction Type

OS:Construction,
  {e7c7b57c-f575-43fd-8026-77836afa144e}, !- Handle
  ASHRAE 189.1-2009 ExtWall Mass ClimateZone alt-res 3, !- Name
  ,                                       !- Surface Rendering Name
  {44994b4a-59b6-46db-ba2c-2c8515ef18fa}, !- Layer 1
  {644ae7a0-b8a0-4981-bec3-1066834cd9a1}, !- Layer 2
  {c10971f6-fb37-42f7-8044-f0f39432d1cb}, !- Layer 3
  {b998ef26-7a40-4686-83a5-a868548bae8e}; !- Layer 4

OS:StandardsInformation:Construction,
  {8b9a8e4a-3005-4919-b4d7-c219a10092b7}, !- Handle
  {e7c7b57c-f575-43fd-8026-77836afa144e}, !- Construction Name
  ExteriorWall,                           !- Intended Surface Type
  Mass;                                   !- Standards Construction Type

OS:Construction,
  {b44c18b3-9edd-4a40-b775-05520a0f3e09}, !- Handle
  ASHRAE 189.1-2009 ExtWall Mass ClimateZone alt-res 4, !- Name
  ,                                       !- Surface Rendering Name
  {44994b4a-59b6-46db-ba2c-2c8515ef18fa}, !- Layer 1
  {644ae7a0-b8a0-4981-bec3-1066834cd9a1}, !- Layer 2
  {dd562cd3-fcca-4380-bcf4-942151985c77}, !- Layer 3
  {b998ef26-7a40-4686-83a5-a868548bae8e}; !- Layer 4

OS:StandardsInformation:Construction,
  {1b909bb1-ce53-486e-8148-408e5c98ad4f}, !- Handle
  {b44c18b3-9edd-4a40-b775-05520a0f3e09}, !- Construction Name
  ExteriorWall,                           !- Intended Surface Type
  Mass;                                   !- Standards Construction Type

OS:Construction,
  {01d95113-ab4a-42ba-aeb4-748c1f425cda}, !- Handle
  ASHRAE 189.1-2009 ExtWall Mass ClimateZone alt-res 5, !- Name
  ,                                       !- Surface Rendering Name
  {44994b4a-59b6-46db-ba2c-2c8515ef18fa}, !- Layer 1
  {644ae7a0-b8a0-4981-bec3-1066834cd9a1}, !- Layer 2
  {fb74c40d-f410-4a52-8b6e-343010242465}, !- Layer 3
  {b998ef26-7a40-4686-83a5-a868548bae8e}; !- Layer 4

OS:StandardsInformation:Construction,
  {fdd3d6f4-7cf8-4cc1-aa86-341dee772119}, !- Handle
  {01d95113-ab4a-42ba-aeb4-748c1f425cda}, !- Construction Name
  ExteriorWall,                           !- Intended Surface Type
  Mass;                                   !- Standards Construction Type

OS:Construction,
  {50efdca8-6a45-4202-b85e-58106d9b7851}, !- Handle
  ASHRAE 189.1-2009 ExtWall Mass ClimateZone alt-res 6, !- Name
  ,                                       !- Surface Rendering Name
  {44994b4a-59b6-46db-ba2c-2c8515ef18fa}, !- Layer 1
  {644ae7a0-b8a0-4981-bec3-1066834cd9a1}, !- Layer 2
  {2f59c65f-d529-40a5-bc2f-b76a43d148d4}, !- Layer 3
  {b998ef26-7a40-4686-83a5-a868548bae8e}; !- Layer 4

OS:StandardsInformation:Construction,
  {33df361a-79d7-4edd-b88a-9c9301456078}, !- Handle
  {50efdca8-6a45-4202-b85e-58106d9b7851}, !- Construction Name
  ExteriorWall,                           !- Intended Surface Type
  Mass;                                   !- Standards Construction Type

OS:Construction,
  {023a078e-63ca-4b2f-b862-5cc89297817c}, !- Handle
  ASHRAE 189.1-2009 ExtWall Mass ClimateZone alt-res 7, !- Name
  ,                                       !- Surface Rendering Name
  {44994b4a-59b6-46db-ba2c-2c8515ef18fa}, !- Layer 1
  {644ae7a0-b8a0-4981-bec3-1066834cd9a1}, !- Layer 2
  {2f59c65f-d529-40a5-bc2f-b76a43d148d4}, !- Layer 3
  {b998ef26-7a40-4686-83a5-a868548bae8e}; !- Layer 4

OS:StandardsInformation:Construction,
  {3c3f67cf-fa82-47c5-95e5-3bf686d72985}, !- Handle
  {023a078e-63ca-4b2f-b862-5cc89297817c}, !- Construction Name
  ExteriorWall,                           !- Intended Surface Type