
OS:Version,
  {4fede0bc-33f6-4609-9917-a485cce38c1b}, !- Handle
  1.3.3;                                  !- Version Identifier

OS:Construction,
  {5e861b33-2872-4c09-a633-88ee3ab49c73}, !- Handle
  ASHRAE 189.1-2009 AtticFloor ClimateZone 1-8, !- Name
  ,                                       !- Surface Rendering Name
  {3f9ff45f-34da-4fc9-95d0-48e4ab59aefe}, !- Layer 1
  {1f3ccfbe-ba9b-464b-a023-1a9f068dfe08}, !- Layer 2
  {3f9ff45f-34da-4fc9-95d0-48e4ab59aefe}; !- Layer 3

OS:StandardsInformation:Construction,
  {356eb843-e15f-4c57-8592-d5a575f1a070}, !- Handle
  {5e861b33-2872-4c09-a633-88ee3ab49c73}, !- Construction Name
  AtticFloor,                             !- Intended Surface Type
  WoodFramed;                             !- Standards Construction Type

OS:Material,
  {3f9ff45f-34da-4fc9-95d0-48e4ab59aefe}, !- Handle
  1/2IN Gypsum,                           !- Name
  Smooth,                                 !- Roughness
  0.0127,                                 !- Thickness {m}
  0.16,                                   !- Conductivity {W/m-K}
  784.9,                                  !- Density {kg/m3}
  830.000000000001,                       !- Specific Heat {J/kg-K}
  0.9,                                    !- Thermal Absorptance
  0.92,                                   !- Solar Absorptance
  0.92;                                   !- Visible Absorptance

OS:Material,
  {1f3ccfbe-ba9b-464b-a023-1a9f068dfe08}, !- Handle
  AtticFloor Insulation,                  !- Name
  MediumRough,                            !- Roughness
  0.2379,                                 !- Thickness {m}
  0.049,                                  !- Conductivity {W/m-K}
  265,                                    !- Density {kg/m3}
  836.800000000001,                       !- Specific Heat {J/kg-K}
  0.9,                                    !- Thermal Absorptance
  0.7,                                    !- Solar Absorptance
  0.7;                                    !- Visible Absorptance

OS:Construction,
  {1b9fb6b9-0627-4236-916f-bde8dcfbafae}, !- Handle
  ASHRAE 189.1-2009 ExtRoof IEAD ClimateZone 1, !- Name
  ,                                       !- Surface Rendering Name
  {3e5b4aed-7f00-4cfb-9484-97361ec475ac}, !- Layer 1
  {bac4a508-2a0c-4ee1-aca6-b228afb7c93c}, !- Layer 2
  {7c5d9aa9-6638-4d04-832a-1c1ecf5400a2}; !- Layer 3

OS:StandardsInformation:Construction,
  {aefa2bae-6258-4091-9653-46f904a00ab0}, !- Handle
  {1b9fb6b9-0627-4236-916f-bde8dcfbafae}, !- Construction Name
  ExteriorRoof,                           !- Intended Surface Type
  IEAD;                                   !- Standards Construction Type

OS:Material,
  {3e5b4aed-7f00-4cfb-9484-97361ec475ac}, !- Handle
  Roof Membrane,                          !- Name
  VeryRough,                              !- Roughness
  0.0095,                                 !- Thickness {m}
  0.16,                                   !- Conductivity {W/m-K}
  1121.29,                                !- Density {kg/m3}
  1460,                                   !- Specific Heat {J/kg-K}
  0.9,                                    !- Thermal Absorptance
  0.7,                                    !- Solar Absorptance
  0.7;                                    !- Visible Absorptance

OS:Material,
  {bac4a508-2a0c-4ee1-aca6-b228afb7c93c}, !- Handle
  Roof Insulation [18],                   !- Name
  MediumRough,                            !- Roughness
  0.1693,                                 !- Thickness {m}
  0.049,                                  !- Conductivity {W/m-K}
  265,                                    !- Density {kg/m3}
  836.800000000001,                       !- Specific Heat {J/kg-K}
  0.9,                                    !- Thermal Absorptance
  0.7,                                    !- Solar Absorptance
  0.7;                                    !- Visible Absorptance

OS:Material,
  {7c5d9aa9-6638-4d04-832a-1c1ecf5400a2}, !- Handle
  Metal Decking,                          !- Name
  MediumSmooth,                           !- Roughness
  0.0015,                                 !- Thickness {m}
  45.006,                                 !- Conductivity {W/m-K}
  7680,                                   !- Density {kg/m3}
  418.4,                                  !- Specific Heat {J/kg-K}
  0.9,                                    !- Thermal Absorptance
  0.7,                                    !- Solar Absorptance
  0.3;                                    !- Visible Absorptance

OS:Construction,
  {2b5d3d6d-1cdc-4679-9647-f6c4186d13a7}, !- Handle
  ASHRAE 189.1-2009 ExtRoof IEAD ClimateZone 2-5, !- Name
  ,                                       !- Surface Rendering Name
  {3e5b4aed-7f00-4cfb-9484-97361ec475ac}, !- Layer 1
  {067c0651-4d3f-4b22-9fd3-d3129bdad85b}, !- Layer 2
  {7c5d9aa9-6638-4d04-832a-1c1ecf5400a2}; !- Layer 3

OS:StandardsInformation:Construction,
  {10b5d8cb-2841-4d30-b17a-d7bae2e040af}, !- Handle
  {2b5d3d6d-1cdc-4679-9647-f6c4186d13a7}, !- Construction Name
  ExteriorRoof,                           !- Intended Surface Type
  IEAD;                                   !- Standards Construction Type

OS:Material,
  {067c0651-4d3f-4b22-9fd3-d3129bdad85b}, !- Handle
  Roof Insulation [21],                   !- Name
  MediumRough,                            !- Roughness
  0.2105,                                 !- Thickness {m}
  0.049,                                  !- Conductivity {W/m-K}
  265,                                    !- Density {kg/m3}
  836.800000000001,                       !- Specific Heat {J/kg-K}
  0.9,                                    !- Thermal Absorptance
  0.7,                                    !- Solar Absorptance
  0.7;                                    !- Visible Absorptance

OS:Construction,
  {6eaffb62-4b4e-40ce-8f6a-4d6abf70f43e}, !- Handle
  ASHRAE 189.1-2009 ExtRoof IEAD ClimateZone 6, !- Name
  ,                                       !- Surface Rendering Name
  {3e5b4aed-7f00-4cfb-9484-97361ec475ac}, !- Layer 1
  {63a45da2-0c00-4427-8fa3-2b674a44fd65}, !- Layer 2
  {7c5d9aa9-6638-4d04-832a-1c1ecf5400a2}; !- Layer 3

OS:StandardsInformation:Construction,
  {3b3e2b80-70d1-46aa-9e5a-9f679b832c01}, !- Handle
  {6eaffb62-4b4e-40ce-8f6a-4d6abf70f43e}, !- Construction Name
  ExteriorRoof,                           !- Intended Surface Type
  IEAD;                                   !- Standards Construction Type

OS:Material,
  {63a45da2-0c00-4427-8fa3-2b674a44fd65}, !- Handle
  Roof Insulation [24],                   !- Name
  MediumRough,                            !- Roughness
  0.260100000000001,                      !- Thickness {m}
  0.049,                                  !- Conductivity {W/m-K}
  265,                                    !- Density {kg/m3}
  836.800000000001,                       !- Specific Heat {J/kg-K}
  0.9,                                    !- Thermal Absorptance
  0.7,                                    !- Solar Absorptance
  0.7;                                    !- Visible Absorptance

OS:Construction,
  {832eb2f7-2e37-43e3-b934-bd3d4922c244}, !- Handle
  ASHRAE 189.1-2009 ExtRoof IEAD ClimateZone 7-8, !- Name
  ,                                       !- Surface Rendering Name
  {3e5b4aed-7f00-4cfb-9484-97361ec475ac}, !- Layer 1
  {fe5b86d8-7d54-427b-8297-7c792e1edc1a}, !- Layer 2
  {7c5d9aa9-6638-4d04-832a-1c1ecf5400a2}; !- Layer 3

OS:StandardsInformation:Construction,
  {1d52011b-a3db-4c33-9057-be28b8823f42}, !- Handle
  {832eb2f7-2e37-43e3-b934-bd3d4922c244}, !- Construction Name
  ExteriorRoof,                           !- Intended Surface Type
  IEAD;                                   !- Standards Construction Type

OS:Material,
  {fe5b86d8-7d54-427b-8297-7c792e1edc1a}, !- Handle
  Roof Insulation [26],                   !- Name
  MediumRough,                            !- Roughness
  0.2941,                                 !- Thickness {m}
  0.049,                                  !- Conductivity {W/m-K}
  265,                                    !- Density {kg/m3}
  836.800000000001,                       !- Specific Heat {J/kg-K}
  0.9,                                    !- Thermal Absorptance
  0.7,                                    !- Solar Absorptance
  0.7;                                    !- Visible Absorptance

OS:Construction,
  {bc2fc199-9653-4c5f-838e-f2af5713192e}, !- Handle
  ASHRAE 189.1-2009 ExtRoof Metal ClimateZone 1, !- Name
  ,                                       !- Surface Rendering Name
  {ba083ccb-d4aa-4a5d-9865-7f3c45bfdbd2}, !- Layer 1
  {0f0e02af-6193-4dff-8c3d-d941f23686c0}; !- Layer 2

OS:StandardsInformation:Construction,
  {39c74f25-2093-4c8c-b783-1c2d4cb96ad2}, !- Handle
  {bc2fc199-9653-4c5f-838e-f2af5713192e}, !- Construction Name
  ExteriorRoof,                           !- Intended Surface Type
  Metal;                                  !- Standards Construction Type

OS:Material,
  {ba083ccb-d4aa-4a5d-9865-7f3c45bfdbd2}, !- Handle
  Metal Roofing,                          !- Name
  MediumSmooth,                           !- Roughness
  0.0015,                                 !- Thickness {m}
  45.006,                                 !- Conductivity {W/m-K}
  7680,                                   !- Density {kg/m3}
  418.4,                                  !- Specific Heat {J/kg-K}
  0.9,                                    !- Thermal Absorptance
  0.3,                                    !- Solar Absorptance
  0.3;                                    !- Visible Absorptance

OS:Material,
  {0f0e02af-6193-4dff-8c3d-d941f23686c0}, !- Handle
  Roof Insulation [19],                   !- Name
  MediumRough,                            !- Roughness
  0.1868,                                 !- Thickness {m}
  0.049,                                  !- Conductivity {W/m-K}
  265,                                    !- Density {kg/m3}
  836.800000000001,                       !- Specific Heat {J/kg-K}
  0.9,                                    !- Thermal Absorptance
  0.7,                                    !- Solar Absorptance
  0.7;                                    !- Visible Absorptance

OS:Construction,
  {8cc4a5d3-ab46-4445-a468-d08f2ef79d79}, !- Handle
  ASHRAE 189.1-2009 ExtRoof Metal ClimateZone 2-5, !- Name
  ,                                       !- Surface Rendering Name
  {ba083ccb-d4aa-4a5d-9865-7f3c45bfdbd2}, !- Layer 1
  {b61d8502-516c-45a1-b755-115743ba81cf}; !- Layer 2

OS:StandardsInformation:Construction,
  {a8b93382-13d4-49c7-9e28-0ade5967f5ab}, !- Handle
  {8cc4a5d3-ab46-4445-a468-d08f2ef79d79}, !- Construction Name
  ExteriorRoof,                           !- Intended Surface Type
  Metal;                                  !- Standards Construction Type

OS:Material,
  {b61d8502-516c-45a1-b755-115743ba81cf}, !- Handle
  Roof Insulation [22],                   !- Name
  MediumRough,                            !- Roughness
  0.2358,                                 !- Thickness {m}
  0.049,                                  !- Conductivity {W/m-K}
  265,                                    !- Density {kg/m3}
  836.800000000001,                       !- Specific Heat {J/kg-K}
  0.9,                                    !- Thermal Absorptance
  0.7,                                    !- Solar Absorptance
  0.7;                                    !- Visible Absorptance

OS:Construction,
  {5b949de5-5b0b-4156-9176-f6751598c070}, !- Handle
  ASHRAE 189.1-2009 ExtRoof Metal ClimateZone 6, !- Name
  ,                                       !- Surface Rendering Name
  {ba083ccb-d4aa-4a5d-9865-7f3c45bfdbd2}, !- Layer 1
  {06bb644b-b498-43a0-9377-82df83912f64}; !- Layer 2

OS:StandardsInformation:Construction,
  {8919e5ee-bd92-47c5-97f5-0e83cea3e421}, !- Handle
  {5b949de5-5b0b-4156-9176-f6751598c070}, !- Construction Name
  ExteriorRoof,                           !- Intended Surface Type
  Metal;                                  !- Standards Construction Type

OS:Material,
  {06bb644b-b498-43a0-9377-82df83912f64}, !- Handle
  Roof Insulation [25],                   !- Name
  MediumRough,                            !- Roughness
  0.263,                                  !- Thickness {m}
  0.049,                                  !- Conductivity {W/m-K}
  265,                                    !- Density {kg/m3}
  836.800000000001,                       !- Specific Heat {J/kg-K}
  0.9,                                    !- Thermal Absorptance
  0.7,                                    !- Solar Absorptance
  0.7;                                    !- Visible Absorptance

OS:Construction,
  {90498faa-06f1-4df2-b0fd-0b2f621dabb1}, !- Handle
  ASHRAE 189.1-2009 ExtRoof Metal ClimateZone 7-8, !- Name
  ,                                       !- Surface Rendering Name
  {ba083ccb-d4aa-4a5d-9865-7f3c45bfdbd2}, !- Layer 1
  {2de8bf0e-ea10-47e6-ae66-8c17095bfd85}; !- Layer 2

OS:StandardsInformation:Construction,
  {5add2ea3-1ddd-421b-8e3e-05615eb2fd55}, !- Handle
  {90498faa-06f1-4df2-b0fd-0b2f621dabb1}, !- Construction Name
  ExteriorRoof,                           !- Intended Surface Type
  Metal;                                  !- Standards Construction Type

OS:Material,
  {2de8bf0e-ea10-47e6-ae66-8c17095bfd85}, !- Handle
  Roof Insulation [27],                   !- Name
  MediumRough,                            !- Roughness
  0.297000000000001,                      !- Thickness {m}
  0.049,                                  !- Conductivity {W/m-K}
  265,                                    !- Density {kg/m3}
  836.800000000001,                       !- Specific Heat {J/kg-K}
  0.9,                                    !- Thermal Absorptance
  0.7,                                    !- Solar Absorptance
  0.7;                                    !- Visible Absorptance

OS:Construction,
  {57f47ded-1333-4656-bf7a-88dbe7cfa4aa}, !- Handle
  ASHRAE 189.1-2009 ExtWall Mass ClimateZone 1, !- Name
  ,                                       !- Surface Rendering Name
  {45f6914c-d78f-4441-974a-b646233a6fb8}, !- Layer 1
  {e07299d1-2026-4e2f-a56a-95c33025fdd0}, !- Layer 2
  {acc4cb49-fc81-43a5-8d90-2d7553b1622f}, !- Layer 3
  {3f9ff45f-34da-4fc9-95d0-48e4ab59aefe}; !- Layer 4

OS:StandardsInformation:Construction,
  {e9c4be66-f722-45a2-b3a3-676456dad4fb}, !- Handle
  {57f47ded-1333-4656-bf7a-88dbe7cfa4aa}, !- Construction Name
  ExteriorWall,                           !- Intended Surface Type
  Mass;                                   !- Standards Construction Type

OS:Material,
  {45f6914c-d78f-4441-974a-b646233a6fb8}, !- Handle
  1IN Stucco,                             !- Name
  Smooth,                                 !- Roughness
  0.0253,                                 !- Thickness {m}
  0.691799999999999,                      !- Conductivity {W/m-K}
  1858,                                   !- Density {kg/m3}
  836.999999999999,                       !- Specific Heat {J/kg-K}
  0.9,                                    !- Thermal Absorptance
  0.92,                                   !- Solar Absorptance
  0.92;                                   !- Visible Absorptance

OS:Material,
  {e07299d1-2026-4e2f-a56a-95c33025fdd0}, !- Handle
  8IN Concrete HW,                        !- Name
  MediumRough,                            !- Roughness
  0.2033,                                 !- Thickness {m}
  1.72959999999999,                       !- Conductivity {W/m-K}
  2242.99999999999,                       !- Density {kg/m3}
  836.999999999999,                       !- Specific Heat {J/kg-K}
  0.9,                                    !- Thermal Absorptance
  0.65,                                   !- Solar Absorptance
  0.65;                                   !- Visible Absorptance

OS:Material,
  {acc4cb49-fc81-43a5-8d90-2d7553b1622f}, !- Handle
  Wall Insulation [31],                   !- Name
  MediumRough,                            !- Roughness
  0.0337000000000001,                     !- Thickness {m}
  0.0432,                                 !- Conductivity {W/m-K}
  91,                                     !- Density {kg/m3}
  836.999999999999,                       !- Specific Heat {J/kg-K}
  0.9,                                    !- Thermal Absorptance
  0.5,                                    !- Solar Absorptance
  0.5;                                    !- Visible Absorptance

OS:Construction,
  {2d3f2486-b97c-4aec-a0b6-b27063506935}, !- Handle
  ASHRAE 189.1-2009 ExtWall Mass ClimateZone 2, !- Name
  ,                                       !- Surface Rendering Name
  {45f6914c-d78f-4441-974a-b646233a6fb8}, !- Layer 1
  {e07299d1-2026-4e2f-a56a-95c33025fdd0}, !- Layer 2
  {f836a67a-acb3-433b-b1d4-5f5430ede3a2}, !- Layer 3
  {3f9ff45f-34da-4fc9-95d0-48e4ab59aefe}; !- Layer 4

OS:StandardsInformation:Construction,
  {356a6762-df6d-4311-8b42-601e5453b467}, !- Handle
  {2d3f2486-b97c-4aec-a0b6-b27063506935}, !- Construction Name
  ExteriorWall,                           !- Intended Surface Type
  Mass;                                   !- Standards Construction Type

OS:Material,
  {f836a67a-acb3-433b-b1d4-5f5430ede3a2}, !- Handle
  Wall Insulation [35],                   !- Name
  MediumRough,                            !- Roughness
  0.0452,                                 !- Thickness {m}
  0.0432,                                 !- Conductivity {W/m-K}
  91,                                     !- Density {kg/m3}
  836.999999999999,                       !- Specific Heat {J/kg-K}
  0.9,                                    !- Thermal Absorptance
  0.5,                                    !- Solar Absorptance
  0.5;                                    !- Visible Absorptance

OS:Construction,
  {8fd2afb1-d017-43b7-b127-c1d570094c25}, !- Handle
  ASHRAE 189.1-2009 ExtWall Mass ClimateZone 3, !- Name
  ,                                       !- Surface Rendering Name
  {45f6914c-d78f-4441-974a-b646233a6fb8}, !- Layer 1
  {e07299d1-2026-4e2f-a56a-95c33025fdd0}, !- Layer 2
  {904a77ca-2dde-473d-b45d-9133434dcc93}, !- Layer 3
  {3f9ff45f-34da-4fc9-95d0-48e4ab59aefe}; !- Layer 4

OS:StandardsInformation:Construction,
  {34a70609-1c8f-4079-8e84-9dc46456a620}, !- Handle
  {8fd2afb1-d017-43b7-b127-c1d570094c25}, !- Construction Name
  ExteriorWall,                           !- Intended Surface Type
  Mass;                                   !- Standards Construction Type

OS:Material,
  {904a77ca-2dde-473d-b45d-9133434dcc93}, !- Handle
  Wall Insulation [36],                   !- Name
  MediumRough,                            !- Roughness
  0.0565999999999999,                     !- Thickness {m}
  0.0432,                                 !- Conductivity {W/m-K}
  91,                                     !- Density {kg/m3}
  836.999999999999,                       !- Specific Heat {J/kg-K}
  0.9,                                    !- Thermal Absorptance
  0.5,                                    !- Solar Absorptance
  0.5;                                    !- Visible Absorptance

OS:Construction,
  {1dc1ec1e-4aa6-4994-976a-65c7900acaa3}, !- Handle
  ASHRAE 189.1-2009 ExtWall Mass ClimateZone 4, !- Name
  ,                                       !- Surface Rendering Name
  {45f6914c-d78f-4441-974a-b646233a6fb8}, !- Layer 1
  {e07299d1-2026-4e2f-a56a-95c33025fdd0}, !- Layer 2
  {23c6f346-9e5d-48bc-ac6c-5cd45ef6d200}, !- Layer 3
  {3f9ff45f-34da-4fc9-95d0-48e4ab59aefe}; !- Layer 4

OS:StandardsInformation:Construction,
  {d31ee23c-9379-4e35-b750-083abbee3c63}, !- Handle
  {1dc1ec1e-4aa6-4994-976a-65c7900acaa3}, !- Construction Name
  ExteriorWall,                           !- Intended Surface Type
  Mass;                                   !- Standards Construction Type

OS:Material,
  {23c6f346-9e5d-48bc-ac6c-5cd45ef6d200}, !- Handle
  Wall Insulation [37],                   !- Name
  MediumRough,                            !- Roughness
  0.0680999999999999,                     !- Thickness {m}
  0.0432,                                 !- Conductivity {W/m-K}
  91,                                     !- Density {kg/m3}
  836.999999999999,                       !- Specific Heat {J/kg-K}
  0.9,                                    !- Thermal Absorptance
  0.5,                                    !- Solar Absorptance
  0.5;                                    !- Visible Absorptance

OS:Construction,
  {75498714-2e7a-426e-bd66-1d2a2781a28d}, !- Handle
  ASHRAE 189.1-2009 ExtWall Mass ClimateZone 5, !- Name
  ,                                       !- Surface Rendering Name
  {45f6914c-d78f-4441-974a-b646233a6fb8}, !- Layer 1
  {e07299d1-2026-4e2f-a56a-95c33025fdd0}, !- Layer 2
  {6e6b8891-0e3a-4d13-b842-8d0f6bcc2ce9}, !- Layer 3
  {3f9ff45f-34da-4fc9-95d0-48e4ab59aefe}; !- Layer 4

OS:StandardsInformation:Construction,
  {8df919f2-63b0-418a-8e59-150e3f213f92}, !- Handle
  {75498714-2e7a-426e-bd66-1d2a2781a28d}, !- Construction Name
  ExteriorWall,                           !- Intended Surface Type
  Mass;                                   !- Standards Construction Type

OS:Material,
  {6e6b8891-0e3a-4d13-b842-8d0f6bcc2ce9}, !- Handle
  Wall Insulation [40],                   !- Name
  MediumRough,                            !- Roughness
  0.0793999999999999,                     !- Thickness {m}
  0.0432,                                 !- Conductivity {W/m-K}
  91,                                     !- Density {kg/m3}
  836.999999999999,                       !- Specific Heat {J/kg-K}
  0.9,                                    !- Thermal Absorptance
  0.5,                                    !- Solar Absorptance
  0.5;                                    !- Visible Absorptance

OS:Construction,
  {38925e4f-0f8e-4da3-a22f-b6b9793d628f}, !- Handle
  ASHRAE 189.1-2009 ExtWall Mass ClimateZone 6, !- Name
  ,                                       !- Surface Rendering Name
  {45f6914c-d78f-4441-974a-b646233a6fb8}, !- Layer 1
  {e07299d1-2026-4e2f-a56a-95c33025fdd0}, !- Layer 2
  {04e68684-59c5-4b81-aae2-93777e6ca629}, !- Layer 3
  {3f9ff45f-34da-4fc9-95d0-48e4ab59aefe}; !- Layer 4

OS:StandardsInformation:Construction,
  {2101ec1d-0eba-4fa0-857f-956160b3acbf}, !- Handle
  {38925e4f-0f8e-4da3-a22f-b6b9793d628f}, !- Construction Name
  ExteriorWall,                           !- Intended Surface Type
  Mass;                                   !- Standards Construction Type

OS:Material,
  {04e68684-59c5-4b81-aae2-93777e6ca629}, !- Handle
  Wall Insulation [42],                   !- Name
  MediumRough,                            !- Roughness
  0.0913999999999999,                     !- Thickness {m}
  0.0432,                                 !- Conductivity {W/m-K}
  91,                                     !- Density {kg/m3}
  836.999999999999,                       !- Specific Heat {J/kg-K}
  0.9,                                    !- Thermal Absorptance
  0.5,                                    !- Solar Absorptance
  0.5;                                    !- Visible Absorptance

OS:Construction,
  {41eb548a-b810-431a-a002-90ab0f8e6af5}, !- Handle
  ASHRAE 189.1-2009 ExtWall Mass ClimateZone 7-8, !- Name
  ,                                       !- Surface Rendering Name
  {45f6914c-d78f-4441-974a-b646233a6fb8}, !- Layer 1
  {e07299d1-2026-4e2f-a56a-95c33025fdd0}, !- Layer 2
  {d1d5254b-50dc-4743-a6f8-479c9e70556d}, !- Layer 3
  {3f9ff45f-34da-4fc9-95d0-48e4ab59aefe}; !- Layer 4

OS:StandardsInformation:Construction,
  {e2781f72-4148-4233-b054-babc90a0a574}, !- Handle
  {41eb548a-b810-431a-a002-90ab0f8e6af5}, !- Construction Name
  ExteriorWall,                           !- Intended Surface Type
  Mass;                                   !- Standards Construction Type

OS:Material,
  {d1d5254b-50dc-4743-a6f8-479c9e70556d}, !- Handle
  Wall Insulation [44],                   !- Name
  MediumRough,                            !- Roughness
  0.1104,                                 !- Thickness {m}
  0.0432,                                 !- Conductivity {W/m-K}
  91,                                     !- Density {kg/m3}
  836.999999999999,                       !- Specific Heat {J/kg-K}
  0.9,                                    !- Thermal Absorptance
  0.5,                                    !- Solar Absorptance
  0.5;                                    !- Visible Absorptance

OS:Construction,
  {49117a5e-5012-4a45-98ba-4e23e5cbfad7}, !- Handle
  ASHRAE 189.1-2009 ExtWall Mass ClimateZone alt-res 1, !- Name
  ,                                       !- Surface Rendering Name
  {45f6914c-d78f-4441-974a-b646233a6fb8}, !- Layer 1
  {e07299d1-2026-4e2f-a56a-95c33025fdd0}, !- Layer 2
  {f836a67a-acb3-433b-b1d4-5f5430ede3a2}, !- Layer 3
  {3f9ff45f-34da-4fc9-95d0-48e4ab59aefe}; !- Layer 4

OS:StandardsInformation:Construction,
  {cd8ccc96-5c16-4da7-a1dd-26ad167ca389}, !- Handle
  {49117a5e-5012-4a45-98ba-4e23e5cbfad7}, !- Construction Name
  ExteriorWall,                           !- Intended Surface Type
  Mass;                                   !- Standards Construction Type

OS:Construction,
  {1c58447f-076c-4140-91fb-089be4fb9390}, !- Handle
  ASHRAE 189.1-2009 ExtWall Mass ClimateZone alt-res 2, !- Name
  ,                                       !- Surface Rendering Name
  {45f6914c-d78f-4441-974a-b646233a6fb8}, !- Layer 1
  {e07299d1-2026-4e2f-a56a-95c33025fdd0}, !- Layer 2
  {904a77ca-2dde-473d-b45d-9133434dcc93}, !- Layer 3
  {3f9ff45f-34da-4fc9-95d0-48e4ab59aefe}; !- Layer 4

OS:StandardsInformation:Construction,
  {928e30e9-e891-4b15-8092-83f591c6a55d}, !- Handle
  {1c58447f-076c-4140-91fb-089be4fb9390}, !- Construction Name
  ExteriorWall,                           !- Intended Surface Type
  Mass;                                   !- Standards Construction Type

OS:Construction,
  {931489cf-645d-49b4-9ac8-de3589f8ff5b}, !- Handle
  ASHRAE 189.1-2009 ExtWall Mass ClimateZone alt-res 3, !- Name
  ,                                       !- Surface Rendering Name
  {45f6914c-d78f-4441-974a-b646233a6fb8}, !- Layer 1
  {e07299d1-2026-4e2f-a56a-95c33025fdd0}, !- Layer 2
  {23c6f346-9e5d-48bc-ac6c-5cd45ef6d200}, !- Layer 3
  {3f9ff45f-34da-4fc9-95d0-48e4ab59aefe}; !- Layer 4

OS:StandardsInformation:Construction,
  {38bceee9-5c62-41e4-99b8-c108e2fbbdbf}, !- Handle
  {931489cf-645d-49b4-9ac8-de3589f8ff5b}, !- Construction Name
  ExteriorWall,                           !- Intended Surface Type
  Mass;                                   !- Standards Construction Type

OS:Construction,
  {2383610b-54a3-43a7-a31c-2d8c931fd639}, !- Handle
  ASHRAE 189.1-2009 ExtWall Mass ClimateZone alt-res 4, !- Name
  ,                                       !- Surface Rendering Name
  {45f6914c-d78f-4441-974a-b646233a6fb8}, !- Layer 1
  {e07299d1-2026-4e2f-a56a-95c33025fdd0}, !- Layer 2
  {6e6b8891-0e3a-4d13-b842-8d0f6bcc2ce9}, !- Layer 3
  {3f9ff45f-34da-4fc9-95d0-48e4ab59aefe}; !- Layer 4

OS:StandardsInformation:Construction,
  {518f11a4-d5b3-4780-924d-713e6a8e2769}, !- Handle
  {2383610b-54a3-43a7-a31c-2d8c931fd639}, !- Construction Name
  ExteriorWall,                           !- Intended Surface Type
  Mass;                                   !- Standards Construction Type

OS:Construction,
  {4a2aa33d-d5e1-451a-a1bf-1a0075ac0d8a}, !- Handle
  ASHRAE 189.1-2009 ExtWall Mass ClimateZone alt-res 5, !- Name
  ,                                       !- Surface Rendering Name
  {45f6914c-d78f-4441-974a-b646233a6fb8}, !- Layer 1
  {e07299d1-2026-4e2f-a56a-95c33025fdd0}, !- Layer 2
  {04e68684-59c5-4b81-aae2-93777e6ca629}, !- Layer 3
  {3f9ff45f-34da-4fc9-95d0-48e4ab59aefe}; !- Layer 4

OS:StandardsInformation:Construction,
  {d5dcabe8-b34b-4818-b951-30552d90a9ae}, !- Handle
  {4a2aa33d-d5e1-451a-a1bf-1a0075ac0d8a}, !- Construction Name
  ExteriorWall,                           !- Intended Surface Type
  Mass;                                   !- Standards Construction Type

OS:Construction,
  {be43ba78-d6ac-4e39-8042-637b8e035f72}, !- Handle
  ASHRAE 189.1-2009 ExtWall Mass ClimateZone alt-res 6, !- Name
  ,                                       !- Surface Rendering Name
  {45f6914c-d78f-4441-974a-b646233a6fb8}, !- Layer 1
  {e07299d1-2026-4e2f-a56a-95c33025fdd0}, !- Layer 2
  {d1d5254b-50dc-4743-a6f8-479c9e70556d}, !- Layer 3
  {3f9ff45f-34da-4fc9-95d0-48e4ab59aefe}; !- Layer 4

OS:StandardsInformation:Construction,
  {22269fdd-e780-447c-90c1-c943a6979981}, !- Handle
  {be43ba78-d6ac-4e39-8042-637b8e035f72}, !- Construction Name
  ExteriorWall,                           !- Intended Surface Type
  Mass;                                   !- Standards Construction Type

OS:Construction,
  {028d9e7d-f615-442d-b6a3-7e76c26209cf}, !- Handle
  ASHRAE 189.1-2009 ExtWall Mass ClimateZone alt-res 7, !- Name
  ,                                       !- Surface Rendering Name
  {45f6914c-d78f-4441-974a-b646233a6fb8}, !- Layer 1
  {e07299d1-2026-4e2f-a56a-95c33025fdd0}, !- Layer 2
  {d1d5254b-50dc-4743-a6f8-479c9e70556d}, !- Layer 3
  {3f9ff45f-34da-4fc9-95d0-48e4ab59aefe}; !- Layer 4

OS:StandardsInformation:Construction,
  {d91aa225-041e-49b3-8278-205bc0d7389c}, !- Handle
  {028d9e7d-f615-442d-b6a3-7e76c26209cf}, !- Construction Name
  ExteriorWall,                           !- Intended Surface Type
  Mass;                                   !- Standards Construction Type

OS:Construction,
  {6a9852b6-5e1b-42bd-b938-ec17e4a338d0}, !- Handle
  ASHRAE 189.1-2009 ExtWall Mass ClimateZone alt-res 8, !- Name