
OS:Version,
  {0dc44ef1-0ce4-46b7-bd7a-ca2693f337cd}, !- Handle
  1.3.3;                                  !- Version Identifier

OS:Construction,
  {559203aa-7a14-4672-bb2c-d94109f4a608}, !- Handle
  ASHRAE 189.1-2009 AtticFloor ClimateZone 1-8, !- Name
  ,                                       !- Surface Rendering Name
  {1ea755a6-066d-4300-9fdd-6a41915969b2}, !- Layer 1
  {41bdf4b4-5ee8-47a1-9ded-8c97b73b7ab2}, !- Layer 2
  {1ea755a6-066d-4300-9fdd-6a41915969b2}; !- Layer 3

OS:StandardsInformation:Construction,
  {57244c33-e2e0-48c6-bdcb-030f3ae3deec}, !- Handle
  {559203aa-7a14-4672-bb2c-d94109f4a608}, !- Construction Name
  AtticFloor,                             !- Intended Surface Type
  WoodFramed;                             !- Standards Construction Type

OS:Material,
  {1ea755a6-066d-4300-9fdd-6a41915969b2}, !- Handle
  1/2IN Gypsum,                           !- Name
  Smooth,                                 !- Roughness
  0.0127,                                 !- Thickness {m}
  0.16,                                   !- Conductivity {W/m-K}
  784.9,                                  !- Density {kg/m3}
  830.000000000001,                       !- Specific Heat {J/kg-K}
  0.9,                                    !- Thermal Absorptance
  0.92,                                   !- Solar Absorptance
  0.92;                                   !- Visible Absorptance

OS:Material,
  {41bdf4b4-5ee8-47a1-9ded-8c97b73b7ab2}, !- Handle
  AtticFloor Insulation,                  !- Name
  MediumRough,                            !- Roughness
  0.2379,                                 !- Thickness {m}
  0.049,                                  !- Conductivity {W/m-K}
  265,                                    !- Density {kg/m3}
  836.800000000001,                       !- Specific Heat {J/kg-K}
  0.9,                                    !- Thermal Absorptance
  0.7,                                    !- Solar Absorptance
  0.7;                                    !- Visible Absorptance

OS:Construction,
  {87aef407-6519-4210-97e9-ef05affeb7e8}, !- Handle
  ASHRAE 189.1-2009 ExtRoof IEAD ClimateZone 1, !- Name
  ,                                       !- Surface Rendering Name
  {11da8ba7-929a-4368-a0f2-0a4f2cf6663c}, !- Layer 1
  {b5a3e14d-0219-42bd-b59c-13132f4577d1}, !- Layer 2
  {973c024e-b558-4575-b81e-561eae8d8034}; !- Layer 3

OS:StandardsInformation:Construction,
  {72290cce-4550-43c1-a394-2e2b91b0076a}, !- Handle
  {87aef407-6519-4210-97e9-ef05affeb7e8}, !- Construction Name
  ExteriorRoof,                           !- Intended Surface Type
  IEAD;                                   !- Standards Construction Type

OS:Material,
  {11da8ba7-929a-4368-a0f2-0a4f2cf6663c}, !- Handle
  Roof Membrane,                          !- Name
  VeryRough,                              !- Roughness
  0.0095,                                 !- Thickness {m}
  0.16,                                   !- Conductivity {W/m-K}
  1121.29,                                !- Density {kg/m3}
  1460,                                   !- Specific Heat {J/kg-K}
  0.9,                                    !- Thermal Absorptance
  0.7,                                    !- Solar Absorptance
  0.7;                                    !- Visible Absorptance

OS:Material,
  {b5a3e14d-0219-42bd-b59c-13132f4577d1}, !- Handle
  Roof Insulation [18],                   !- Name
  MediumRough,                            !- Roughness
  0.1693,                                 !- Thickness {m}
  0.049,                                  !- Conductivity {W/m-K}
  265,                                    !- Density {kg/m3}
  836.800000000001,                       !- Specific Heat {J/kg-K}
  0.9,                                    !- Thermal Absorptance
  0.7,                                    !- Solar Absorptance
  0.7;                                    !- Visible Absorptance

OS:Material,
  {973c024e-b558-4575-b81e-561eae8d8034}, !- Handle
  Metal Decking,                          !- Name
  MediumSmooth,                           !- Roughness
  0.0015,                                 !- Thickness {m}
  45.006,                                 !- Conductivity {W/m-K}
  7680,                                   !- Density {kg/m3}
  418.4,                                  !- Specific Heat {J/kg-K}
  0.9,                                    !- Thermal Absorptance
  0.7,                                    !- Solar Absorptance
  0.3;                                    !- Visible Absorptance

OS:Construction,
  {87111e0a-d9a8-45f8-8865-11c6a1f18f49}, !- Handle
  ASHRAE 189.1-2009 ExtRoof IEAD ClimateZone 2-5, !- Name
  ,                                       !- Surface Rendering Name
  {11da8ba7-929a-4368-a0f2-0a4f2cf6663c}, !- Layer 1
  {41fb44fb-d1e1-4263-aba5-893ab2787c4d}, !- Layer 2
  {973c024e-b558-4575-b81e-561eae8d8034}; !- Layer 3

OS:StandardsInformation:Construction,
  {6d2ec780-36ec-428e-a5c6-e458c3c16b82}, !- Handle
  {87111e0a-d9a8-45f8-8865-11c6a1f18f49}, !- Construction Name
  ExteriorRoof,                           !- Intended Surface Type
  IEAD;                                   !- Standards Construction Type

OS:Material,
  {41fb44fb-d1e1-4263-aba5-893ab2787c4d}, !- Handle
  Roof Insulation [21],                   !- Name
  MediumRough,                            !- Roughness
  0.2105,                                 !- Thickness {m}
  0.049,                                  !- Conductivity {W/m-K}
  265,                                    !- Density {kg/m3}
  836.800000000001,                       !- Specific Heat {J/kg-K}
  0.9,                                    !- Thermal Absorptance
  0.7,                                    !- Solar Absorptance
  0.7;                                    !- Visible Absorptance

OS:Construction,
  {c328e16a-63a7-4321-a112-1f3ab0996fa6}, !- Handle
  ASHRAE 189.1-2009 ExtRoof IEAD ClimateZone 6, !- Name
  ,                                       !- Surface Rendering Name
  {11da8ba7-929a-4368-a0f2-0a4f2cf6663c}, !- Layer 1
  {05156c4a-7ab3-457a-82a9-34522ce18b2d}, !- Layer 2
  {973c024e-b558-4575-b81e-561eae8d8034}; !- Layer 3

OS:StandardsInformation:Construction,
  {913b5e15-060e-47f6-a606-4689293bbc69}, !- Handle
  {c328e16a-63a7-4321-a112-1f3ab0996fa6}, !- Construction Name
  ExteriorRoof,                           !- Intended Surface Type
  IEAD;                                   !- Standards Construction Type

OS:Material,
  {05156c4a-7ab3-457a-82a9-34522ce18b2d}, !- Handle
  Roof Insulation [24],                   !- Name
  MediumRough,                            !- Roughness
  0.260100000000001,                      !- Thickness {m}
  0.049,                                  !- Conductivity {W/m-K}
  265,                                    !- Density {kg/m3}
  836.800000000001,                       !- Specific Heat {J/kg-K}
  0.9,                                    !- Thermal Absorptance
  0.7,                                    !- Solar Absorptance
  0.7;                                    !- Visible Absorptance

OS:Construction,
  {4b718137-c743-4f48-88e6-c3758c33c2ad}, !- Handle
  ASHRAE 189.1-2009 ExtRoof IEAD ClimateZone 7-8, !- Name
  ,                                       !- Surface Rendering Name
  {11da8ba7-929a-4368-a0f2-0a4f2cf6663c}, !- Layer 1
  {3570e2c8-d580-423c-95d5-01f39ff8e6a7}, !- Layer 2
  {973c024e-b558-4575-b81e-561eae8d8034}; !- Layer 3

OS:StandardsInformation:Construction,
  {41f6aa0a-efb1-4754-b565-4962ab65cd48}, !- Handle
  {4b718137-c743-4f48-88e6-c3758c33c2ad}, !- Construction Name
  ExteriorRoof,                           !- Intended Surface Type
  IEAD;                                   !- Standards Construction Type

OS:Material,
  {3570e2c8-d580-423c-95d5-01f39ff8e6a7}, !- Handle
  Roof Insulation [26],                   !- Name
  MediumRough,                            !- Roughness
  0.2941,                                 !- Thickness {m}
  0.049,                                  !- Conductivity {W/m-K}
  265,                                    !- Density {kg/m3}
  836.800000000001,                       !- Specific Heat {J/kg-K}
  0.9,                                    !- Thermal Absorptance
  0.7,                                    !- Solar Absorptance
  0.7;                                    !- Visible Absorptance

OS:Construction,
  {5f47a6d5-8af5-4ba3-82de-f836c5628a1a}, !- Handle
  ASHRAE 189.1-2009 ExtRoof Metal ClimateZone 1, !- Name
  ,                                       !- Surface Rendering Name
  {9185b1b1-7e85-43b1-9de9-ee6abd35d870}, !- Layer 1
  {14877237-7b78-4b49-b6e5-f35fe2cf8eb5}; !- Layer 2

OS:StandardsInformation:Construction,
  {eb680d69-8b07-40ec-b860-a091fc70d6ca}, !- Handle
  {5f47a6d5-8af5-4ba3-82de-f836c5628a1a}, !- Construction Name
  ExteriorRoof,                           !- Intended Surface Type
  Metal;                                  !- Standards Construction Type

OS:Material,
  {9185b1b1-7e85-43b1-9de9-ee6abd35d870}, !- Handle
  Metal Roofing,                          !- Name
  MediumSmooth,                           !- Roughness
  0.0015,                                 !- Thickness {m}
  45.006,                                 !- Conductivity {W/m-K}
  7680,                                   !- Density {kg/m3}
  418.4,                                  !- Specific Heat {J/kg-K}
  0.9,                                    !- Thermal Absorptance
  0.3,                                    !- Solar Absorptance
  0.3;                                    !- Visible Absorptance

OS:Material,
  {14877237-7b78-4b49-b6e5-f35fe2cf8eb5}, !- Handle
  Roof Insulation [19],                   !- Name
  MediumRough,                            !- Roughness
  0.1868,                                 !- Thickness {m}
  0.049,                                  !- Conductivity {W/m-K}
  265,                                    !- Density {kg/m3}
  836.800000000001,                       !- Specific Heat {J/kg-K}
  0.9,                                    !- Thermal Absorptance
  0.7,                                    !- Solar Absorptance
  0.7;                                    !- Visible Absorptance

OS:Construction,
  {393dda4a-4230-45ef-bca3-0c7bceecaf73}, !- Handle
  ASHRAE 189.1-2009 ExtRoof Metal ClimateZone 2-5, !- Name
  ,                                       !- Surface Rendering Name
  {9185b1b1-7e85-43b1-9de9-ee6abd35d870}, !- Layer 1
  {5d798ac1-4692-4df7-b023-7cbe8f016b41}; !- Layer 2

OS:StandardsInformation:Construction,
  {6ecc58b6-184d-48c3-8c30-59d27feea389}, !- Handle
  {393dda4a-4230-45ef-bca3-0c7bceecaf73}, !- Construction Name
  ExteriorRoof,                           !- Intended Surface Type
  Metal;                                  !- Standards Construction Type

OS:Material,
  {5d798ac1-4692-4df7-b023-7cbe8f016b41}, !- Handle
  Roof Insulation [22],                   !- Name
  MediumRough,                            !- Roughness
  0.2358,                                 !- Thickness {m}
  0.049,                                  !- Conductivity {W/m-K}
  265,                                    !- Density {kg/m3}
  836.800000000001,                       !- Specific Heat {J/kg-K}
  0.9,                                    !- Thermal Absorptance
  0.7,                                    !- Solar Absorptance
  0.7;                                    !- Visible Absorptance

OS:Construction,
  {e1f8c5db-4eba-4cc7-9988-f5217ea645aa}, !- Handle
  ASHRAE 189.1-2009 ExtRoof Metal ClimateZone 6, !- Name
  ,                                       !- Surface Rendering Name
  {9185b1b1-7e85-43b1-9de9-ee6abd35d870}, !- Layer 1
  {2eaced92-6df1-4c21-b773-a562eedfe261}; !- Layer 2

OS:StandardsInformation:Construction,
  {b6d6963a-3e62-4f56-8d9e-cd24b8a26947}, !- Handle
  {e1f8c5db-4eba-4cc7-9988-f5217ea645aa}, !- Construction Name
  ExteriorRoof,                           !- Intended Surface Type
  Metal;                                  !- Standards Construction Type

OS:Material,
  {2eaced92-6df1-4c21-b773-a562eedfe261}, !- Handle
  Roof Insulation [25],                   !- Name
  MediumRough,                            !- Roughness
  0.263,                                  !- Thickness {m}
  0.049,                                  !- Conductivity {W/m-K}
  265,                                    !- Density {kg/m3}
  836.800000000001,                       !- Specific Heat {J/kg-K}
  0.9,                                    !- Thermal Absorptance
  0.7,                                    !- Solar Absorptance
  0.7;                                    !- Visible Absorptance

OS:Construction,
  {c399aa1b-c94b-46e4-865a-46262da79db0}, !- Handle
  ASHRAE 189.1-2009 ExtRoof Metal ClimateZone 7-8, !- Name
  ,                                       !- Surface Rendering Name
  {9185b1b1-7e85-43b1-9de9-ee6abd35d870}, !- Layer 1
  {66d9920d-2ad3-4ed5-bb97-906823ff6793}; !- Layer 2

OS:StandardsInformation:Construction,
  {49cc52ad-c258-4a5a-a7c3-41888b0981f1}, !- Handle
  {c399aa1b-c94b-46e4-865a-46262da79db0}, !- Construction Name
  ExteriorRoof,                           !- Intended Surface Type
  Metal;                                  !- Standards Construction Type

OS:Material,
  {66d9920d-2ad3-4ed5-bb97-906823ff6793}, !- Handle
  Roof Insulation [27],                   !- Name
  MediumRough,                            !- Roughness
  0.297000000000001,                      !- Thickness {m}
  0.049,                                  !- Conductivity {W/m-K}
  265,                                    !- Density {kg/m3}
  836.800000000001,                       !- Specific Heat {J/kg-K}
  0.9,                                    !- Thermal Absorptance
  0.7,                                    !- Solar Absorptance
  0.7;                                    !- Visible Absorptance

OS:Construction,
  {380b4c88-e229-45a3-b205-79229c061fe6}, !- Handle
  ASHRAE 189.1-2009 ExtWall Mass ClimateZone 1, !- Name
  ,                                       !- Surface Rendering Name
  {ff9c2af1-72a5-4a05-8c20-9591c316acf6}, !- Layer 1
  {98de7fd9-4a16-42c1-858c-a1c19a128ead}, !- Layer 2
  {fc116d7d-1ec6-47b4-b850-726add068ecd}, !- Layer 3
  {1ea755a6-066d-4300-9fdd-6a41915969b2}; !- Layer 4

OS:StandardsInformation:Construction,
  {7b2abf65-8e9e-4634-82b7-43ddbe94f138}, !- Handle
  {380b4c88-e229-45a3-b205-79229c061fe6}, !- Construction Name
  ExteriorWall,                           !- Intended Surface Type
  Mass;                                   !- Standards Construction Type

OS:Material,
  {ff9c2af1-72a5-4a05-8c20-9591c316acf6}, !- Handle
  1IN Stucco,                             !- Name
  Smooth,                                 !- Roughness
  0.0253,                                 !- Thickness {m}
  0.691799999999999,                      !- Conductivity {W/m-K}
  1858,                                   !- Density {kg/m3}
  836.999999999999,                       !- Specific Heat {J/kg-K}
  0.9,                                    !- Thermal Absorptance
  0.92,                                   !- Solar Absorptance
  0.92;                                   !- Visible Absorptance

OS:Material,
  {98de7fd9-4a16-42c1-858c-a1c19a128ead}, !- Handle
  8IN Concrete HW,                        !- Name
  MediumRough,                            !- Roughness
  0.2033,                                 !- Thickness {m}
  1.72959999999999,                       !- Conductivity {W/m-K}
  2242.99999999999,                       !- Density {kg/m3}
  836.999999999999,                       !- Specific Heat {J/kg-K}
  0.9,                                    !- Thermal Absorptance
  0.65,                                   !- Solar Absorptance
  0.65;                                   !- Visible Absorptance

OS:Material,
  {fc116d7d-1ec6-47b4-b850-726add068ecd}, !- Handle
  Wall Insulation [31],                   !- Name
  MediumRough,                            !- Roughness
  0.0337000000000001,                     !- Thickness {m}
  0.0432,                                 !- Conductivity {W/m-K}
  91,                                     !- Density {kg/m3}
  836.999999999999,                       !- Specific Heat {J/kg-K}
  0.9,                                    !- Thermal Absorptance
  0.5,                                    !- Solar Absorptance
  0.5;                                    !- Visible Absorptance

OS:Construction,
  {67da894f-d8d3-4a64-a088-8cfd4e9e7f99}, !- Handle
  ASHRAE 189.1-2009 ExtWall Mass ClimateZone 2, !- Name
  ,                                       !- Surface Rendering Name
  {ff9c2af1-72a5-4a05-8c20-9591c316acf6}, !- Layer 1
  {98de7fd9-4a16-42c1-858c-a1c19a128ead}, !- Layer 2
  {5294bcea-7034-4398-a91d-a5200bc06aea}, !- Layer 3
  {1ea755a6-066d-4300-9fdd-6a41915969b2}; !- Layer 4

OS:StandardsInformation:Construction,
  {3714fbd1-c4d7-4d39-a48d-79aabd9bd646}, !- Handle
  {67da894f-d8d3-4a64-a088-8cfd4e9e7f99}, !- Construction Name
  ExteriorWall,                           !- Intended Surface Type
  Mass;                                   !- Standards Construction Type

OS:Material,
  {5294bcea-7034-4398-a91d-a5200bc06aea}, !- Handle
  Wall Insulation [35],                   !- Name
  MediumRough,                            !- Roughness
  0.0452,                                 !- Thickness {m}
  0.0432,                                 !- Conductivity {W/m-K}
  91,                                     !- Density {kg/m3}
  836.999999999999,                       !- Specific Heat {J/kg-K}
  0.9,                                    !- Thermal Absorptance
  0.5,                                    !- Solar Absorptance
  0.5;                                    !- Visible Absorptance

OS:Construction,
  {f796b957-f150-4e15-ba31-64f1071fbe38}, !- Handle
  ASHRAE 189.1-2009 ExtWall Mass ClimateZone 3, !- Name
  ,                                       !- Surface Rendering Name
  {ff9c2af1-72a5-4a05-8c20-9591c316acf6}, !- Layer 1
  {98de7fd9-4a16-42c1-858c-a1c19a128ead}, !- Layer 2
  {5cef491f-c731-43d2-8f18-fed084f40251}, !- Layer 3
  {1ea755a6-066d-4300-9fdd-6a41915969b2}; !- Layer 4

OS:StandardsInformation:Construction,
  {2167dbf4-1d46-4199-a958-f64516f1ee19}, !- Handle
  {f796b957-f150-4e15-ba31-64f1071fbe38}, !- Construction Name
  ExteriorWall,                           !- Intended Surface Type
  Mass;                                   !- Standards Construction Type

OS:Material,
  {5cef491f-c731-43d2-8f18-fed084f40251}, !- Handle
  Wall Insulation [36],                   !- Name
  MediumRough,                            !- Roughness
  0.0565999999999999,                     !- Thickness {m}
  0.0432,                                 !- Conductivity {W/m-K}
  91,                                     !- Density {kg/m3}
  836.999999999999,                       !- Specific Heat {J/kg-K}
  0.9,                                    !- Thermal Absorptance
  0.5,                                    !- Solar Absorptance
  0.5;                                    !- Visible Absorptance

OS:Construction,
  {80ff74e5-6505-486f-bce0-00b060917c09}, !- Handle
  ASHRAE 189.1-2009 ExtWall Mass ClimateZone 4, !- Name
  ,                                       !- Surface Rendering Name
  {ff9c2af1-72a5-4a05-8c20-9591c316acf6}, !- Layer 1
  {98de7fd9-4a16-42c1-858c-a1c19a128ead}, !- Layer 2
  {897b73cb-6d7e-47d8-91a9-459f5a19d82b}, !- Layer 3
  {1ea755a6-066d-4300-9fdd-6a41915969b2}; !- Layer 4

OS:StandardsInformation:Construction,
  {79083222-4325-4431-9603-0001c55fb812}, !- Handle
  {80ff74e5-6505-486f-bce0-00b060917c09}, !- Construction Name
  ExteriorWall,                           !- Intended Surface Type
  Mass;                                   !- Standards Construction Type

OS:Material,
  {897b73cb-6d7e-47d8-91a9-459f5a19d82b}, !- Handle
  Wall Insulation [37],                   !- Name
  MediumRough,                            !- Roughness
  0.0680999999999999,                     !- Thickness {m}
  0.0432,                                 !- Conductivity {W/m-K}
  91,                                     !- Density {kg/m3}
  836.999999999999,                       !- Specific Heat {J/kg-K}
  0.9,                                    !- Thermal Absorptance
  0.5,                                    !- Solar Absorptance
  0.5;                                    !- Visible Absorptance

OS:Construction,
  {00a22dd9-6f46-4d71-8072-5f5ed04df76a}, !- Handle
  ASHRAE 189.1-2009 ExtWall Mass ClimateZone 5, !- Name
  ,                                       !- Surface Rendering Name
  {ff9c2af1-72a5-4a05-8c20-9591c316acf6}, !- Layer 1
  {98de7fd9-4a16-42c1-858c-a1c19a128ead}, !- Layer 2
  {678e97e7-da71-4dca-b478-9395122a524e}, !- Layer 3
  {1ea755a6-066d-4300-9fdd-6a41915969b2}; !- Layer 4

OS:StandardsInformation:Construction,
  {c1cc25c7-0d00-4345-b1f4-4d5da2a78c18}, !- Handle
  {00a22dd9-6f46-4d71-8072-5f5ed04df76a}, !- Construction Name
  ExteriorWall,                           !- Intended Surface Type
  Mass;                                   !- Standards Construction Type

OS:Material,
  {678e97e7-da71-4dca-b478-9395122a524e}, !- Handle
  Wall Insulation [40],                   !- Name
  MediumRough,                            !- Roughness
  0.0793999999999999,                     !- Thickness {m}
  0.0432,                                 !- Conductivity {W/m-K}
  91,                                     !- Density {kg/m3}
  836.999999999999,                       !- Specific Heat {J/kg-K}
  0.9,                                    !- Thermal Absorptance
  0.5,                                    !- Solar Absorptance
  0.5;                                    !- Visible Absorptance

OS:Construction,
  {40ffb041-a5d5-4ce3-b4e3-cfcd6a82643f}, !- Handle
  ASHRAE 189.1-2009 ExtWall Mass ClimateZone 6, !- Name
  ,                                       !- Surface Rendering Name
  {ff9c2af1-72a5-4a05-8c20-9591c316acf6}, !- Layer 1
  {98de7fd9-4a16-42c1-858c-a1c19a128ead}, !- Layer 2
  {81bd01bf-1973-4a7b-a77f-c0a1dd68c2e5}, !- Layer 3
  {1ea755a6-066d-4300-9fdd-6a41915969b2}; !- Layer 4

OS:StandardsInformation:Construction,
  {daa9eca4-e83b-4e67-9e0c-d8193e3d3767}, !- Handle
  {40ffb041-a5d5-4ce3-b4e3-cfcd6a82643f}, !- Construction Name
  ExteriorWall,                           !- Intended Surface Type
  Mass;                                   !- Standards Construction Type

OS:Material,
  {81bd01bf-1973-4a7b-a77f-c0a1dd68c2e5}, !- Handle
  Wall Insulation [42],                   !- Name
  MediumRough,                            !- Roughness
  0.0913999999999999,                     !- Thickness {m}
  0.0432,                                 !- Conductivity {W/m-K}
  91,                                     !- Density {kg/m3}
  836.999999999999,                       !- Specific Heat {J/kg-K}
  0.9,                                    !- Thermal Absorptance
  0.5,                                    !- Solar Absorptance
  0.5;                                    !- Visible Absorptance

OS:Construction,
  {020b9053-27b2-40bb-8c48-c67f9102638b}, !- Handle
  ASHRAE 189.1-2009 ExtWall Mass ClimateZone 7-8, !- Name
  ,                                       !- Surface Rendering Name
  {ff9c2af1-72a5-4a05-8c20-9591c316acf6}, !- Layer 1
  {98de7fd9-4a16-42c1-858c-a1c19a128ead}, !- Layer 2
  {0226c2a0-7e03-48c2-bec9-f4f0e706b10a}, !- Layer 3
  {1ea755a6-066d-4300-9fdd-6a41915969b2}; !- Layer 4

OS:StandardsInformation:Construction,
  {df768431-1ab4-415f-ac72-3e76f07bbcba}, !- Handle
  {020b9053-27b2-40bb-8c48-c67f9102638b}, !- Construction Name
  ExteriorWall,                           !- Intended Surface Type
  Mass;                                   !- Standards Construction Type

OS:Material,
  {0226c2a0-7e03-48c2-bec9-f4f0e706b10a}, !- Handle
  Wall Insulation [44],                   !- Name
  MediumRough,                            !- Roughness
  0.1104,                                 !- Thickness {m}
  0.0432,                                 !- Conductivity {W/m-K}
  91,                                     !- Density {kg/m3}
  836.999999999999,                       !- Specific Heat {J/kg-K}
  0.9,                                    !- Thermal Absorptance
  0.5,                                    !- Solar Absorptance
  0.5;                                    !- Visible Absorptance

OS:Construction,
  {02754ab1-4ca4-4bbe-a4c7-063d455f6ef1}, !- Handle
  ASHRAE 189.1-2009 ExtWall Mass ClimateZone alt-res 1, !- Name
  ,                                       !- Surface Rendering Name
  {ff9c2af1-72a5-4a05-8c20-9591c316acf6}, !- Layer 1
  {98de7fd9-4a16-42c1-858c-a1c19a128ead}, !- Layer 2
  {5294bcea-7034-4398-a91d-a5200bc06aea}, !- Layer 3
  {1ea755a6-066d-4300-9fdd-6a41915969b2}; !- Layer 4

OS:StandardsInformation:Construction,
  {9d168d12-06cf-4494-abc3-b79109bf7aaa}, !- Handle
  {02754ab1-4ca4-4bbe-a4c7-063d455f6ef1}, !- Construction Name
  ExteriorWall,                           !- Intended Surface Type
  Mass;                                   !- Standards Construction Type

OS:Construction,
  {f6ffe7cc-3826-41ed-96b6-84e1cd7af032}, !- Handle
  ASHRAE 189.1-2009 ExtWall Mass ClimateZone alt-res 2, !- Name
  ,                                       !- Surface Rendering Name
  {ff9c2af1-72a5-4a05-8c20-9591c316acf6}, !- Layer 1
  {98de7fd9-4a16-42c1-858c-a1c19a128ead}, !- Layer 2
  {5cef491f-c731-43d2-8f18-fed084f40251}, !- Layer 3
  {1ea755a6-066d-4300-9fdd-6a41915969b2}; !- Layer 4

OS:StandardsInformation:Construction,
  {a08ab4c3-9ba3-44e6-902d-54c566a57f55}, !- Handle
  {f6ffe7cc-3826-41ed-96b6-84e1cd7af032}, !- Construction Name
  ExteriorWall,                           !- Intended Surface Type
  Mass;                                   !- Standards Construction Type

OS:Construction,
  {28865fe2-2796-49c3-8981-35295aef005f}, !- Handle
  ASHRAE 189.1-2009 ExtWall Mass ClimateZone alt-res 3, !- Name
  ,                                       !- Surface Rendering Name
  {ff9c2af1-72a5-4a05-8c20-9591c316acf6}, !- Layer 1
  {98de7fd9-4a16-42c1-858c-a1c19a128ead}, !- Layer 2
  {897b73cb-6d7e-47d8-91a9-459f5a19d82b}, !- Layer 3
  {1ea755a6-066d-4300-9fdd-6a41915969b2}; !- Layer 4

OS:StandardsInformation:Construction,
  {f70b1af6-0da8-4902-ae61-dd68afa73bf7}, !- Handle
  {28865fe2-2796-49c3-8981-35295aef005f}, !- Construction Name
  ExteriorWall,                           !- Intended Surface Type
  Mass;                                   !- Standards Construction Type

OS:Construction,
  {ac6e32af-69de-47f5-8a1d-0530b0243a03}, !- Handle
  ASHRAE 189.1-2009 ExtWall Mass ClimateZone alt-res 4, !- Name
  ,                                       !- Surface Rendering Name
  {ff9c2af1-72a5-4a05-8c20-9591c316acf6}, !- Layer 1
  {98de7fd9-4a16-42c1-858c-a1c19a128ead}, !- Layer 2
  {678e97e7-da71-4dca-b478-9395122a524e}, !- Layer 3
  {1ea755a6-066d-4300-9fdd-6a41915969b2}; !- Layer 4

OS:StandardsInformation:Construction,
  {b168f26d-d306-4208-8dde-ad5b55f81c8b}, !- Handle
  {ac6e32af-69de-47f5-8a1d-0530b0243a03}, !- Construction Name
  ExteriorWall,                           !- Intended Surface Type
  Mass;                                   !- Standards Construction Type

OS:Construction,
  {8c1c9e1b-9689-4c0d-a7b8-119e6fa1b72d}, !- Handle
  ASHRAE 189.1-2009 ExtWall Mass ClimateZone alt-res 5, !- Name
  ,                                       !- Surface Rendering Name
  {ff9c2af1-72a5-4a05-8c20-9591c316acf6}, !- Layer 1
  {98de7fd9-4a16-42c1-858c-a1c19a128ead}, !- Layer 2
  {81bd01bf-1973-4a7b-a77f-c0a1dd68c2e5}, !- Layer 3
  {1ea755a6-066d-4300-9fdd-6a41915969b2}; !- Layer 4

OS:StandardsInformation:Construction,
  {a09aecb6-ebfa-453b-9ed6-04b760be6432}, !- Handle
  {8c1c9e1b-9689-4c0d-a7b8-119e6fa1b72d}, !- Construction Name
  ExteriorWall,                           !- Intended Surface Type
  Mass;                                   !- Standards Construction Type

OS:Construction,
  {7a9200a7-fedf-4e6e-a328-d72a3f83a06b}, !- Handle
  ASHRAE 189.1-2009 ExtWall Mass ClimateZone alt-res 6, !- Name
  ,                                       !- Surface Rendering Name
  {ff9c2af1-72a5-4a05-8c20-9591c316acf6}, !- Layer 1
  {98de7fd9-4a16-42c1-858c-a1c19a128ead}, !- Layer 2
  {0226c2a0-7e03-48c2-bec9-f4f0e706b10a}, !- Layer 3
  {1ea755a6-066d-4300-9fdd-6a41915969b2}; !- Layer 4

OS:StandardsInformation:Construction,
  {9533c0b1-13a8-482b-930b-132e036e3c29}, !- Handle
  {7a9200a7-fedf-4e6e-a328-d72a3f83a06b}, !- Construction Name
  ExteriorWall,                           !- Intended Surface Type
  Mass;                                   !- Standards Construction Type

OS:Construction,
  {2342ad4d-813f-4278-afe8-837dfd55303f}, !- Handle
  ASHRAE 189.1-2009 ExtWall Mass ClimateZone alt-res 7, !- Name
  ,                                       !- Surface Rendering Name
  {ff9c2af1-72a5-4a05-8c20-9591c316acf6}, !- Layer 1
  {98de7fd9-4a16-42c1-858c-a1c19a128ead}, !- Layer 2
  {0226c2a0-7e03-48c2-bec9-f4f0e706b10a}, !- Layer 3
  {1ea755a6-066d-4300-9fdd-6a41915969b2}; !- Layer 4

OS:StandardsInformation:Construction,
  {35f5ea33-29e8-4f72-b28f-b1ef69cd09cd}, !- Handle
  {2342ad4d-813f-4278-afe8-837dfd55303f}, !- Construction Name
  ExteriorWall,                           !- Intended Surface Type
  Mass;                                   !- Standards Construction Type

OS:Construction,
  {a1db71ba-f2a5-4f64-8ef6-f2be3574f1e8}, !- Handle
  ASHRAE 189.1-2009 ExtWall Mass ClimateZone alt-res 8, !- Name