
OS:Version,
  {5b0cdcc9-4912-4173-bbd4-9afe230b327e}, !- Handle
  1.2.3;                                  !- Version Identifier

OS:Construction,
  {53060552-bb97-4dad-9392-9b79f1d6898b}, !- Handle
  ASHRAE 189.1-2009 AtticFloor ClimateZone 1-8, !- Name
  ,                                       !- Surface Rendering Name
  {e8127880-b7fc-487f-a0b6-57716e596400}, !- Layer 1
  {cc38bc76-1ad2-4478-93cd-8a7cc147a1ee}, !- Layer 2
  {e8127880-b7fc-487f-a0b6-57716e596400}; !- Layer 3

OS:StandardsInformation:Construction,
  {ce9702cb-4b8c-4af1-9075-69244f11e338}, !- Handle
  {53060552-bb97-4dad-9392-9b79f1d6898b}, !- Construction Name
  AtticFloor,                             !- Intended Surface Type
  ASHRAE 189.1-2009;                      !- Standards Construction Type

OS:Material,
  {e8127880-b7fc-487f-a0b6-57716e596400}, !- Handle
  1/2IN Gypsum,                           !- Name
  Smooth,                                 !- Roughness
  0.0127,                                 !- Thickness {m}
  0.16,                                   !- Conductivity {W/m-K}
  784.9,                                  !- Density {kg/m3}
  830.000000000001,                       !- Specific Heat {J/kg-K}
  0.9,                                    !- Thermal Absorptance
  0.92,                                   !- Solar Absorptance
  0.92;                                   !- Visible Absorptance

OS:Material,
  {cc38bc76-1ad2-4478-93cd-8a7cc147a1ee}, !- Handle
  AtticFloor Insulation,                  !- Name
  MediumRough,                            !- Roughness
  0.2379,                                 !- Thickness {m}
  0.049,                                  !- Conductivity {W/m-K}
  265,                                    !- Density {kg/m3}
  836.800000000001,                       !- Specific Heat {J/kg-K}
  0.9,                                    !- Thermal Absorptance
  0.7,                                    !- Solar Absorptance
  0.7;                                    !- Visible Absorptance

OS:Construction,
  {30c8b3f2-a85b-491b-af36-cf6a9b536bc0}, !- Handle
  ASHRAE 189.1-2009 ExtRoof IEAD ClimateZone 1, !- Name
  ,                                       !- Surface Rendering Name
  {191f7ef1-0c18-4c39-97f1-bd76ffdee52a}, !- Layer 1
  {c60e08da-5805-44b1-87db-ba554ce57217}, !- Layer 2
  {95ff1c2c-44de-431e-88ac-6e12eb9a200f}; !- Layer 3

OS:StandardsInformation:Construction,
  {c809d57b-e832-49e1-a96f-b5b97a6c7852}, !- Handle
  {30c8b3f2-a85b-491b-af36-cf6a9b536bc0}, !- Construction Name
  ExteriorRoof,                           !- Intended Surface Type
  ASHRAE 189.1-2009;                      !- Standards Construction Type

OS:Material,
  {191f7ef1-0c18-4c39-97f1-bd76ffdee52a}, !- Handle
  Roof Membrane,                          !- Name
  VeryRough,                              !- Roughness
  0.0095,                                 !- Thickness {m}
  0.16,                                   !- Conductivity {W/m-K}
  1121.29,                                !- Density {kg/m3}
  1460,                                   !- Specific Heat {J/kg-K}
  0.9,                                    !- Thermal Absorptance
  0.7,                                    !- Solar Absorptance
  0.7;                                    !- Visible Absorptance

OS:Material,
  {c60e08da-5805-44b1-87db-ba554ce57217}, !- Handle
  Roof Insulation [18],                   !- Name
  MediumRough,                            !- Roughness
  0.1693,                                 !- Thickness {m}
  0.049,                                  !- Conductivity {W/m-K}
  265,                                    !- Density {kg/m3}
  836.800000000001,                       !- Specific Heat {J/kg-K}
  0.9,                                    !- Thermal Absorptance
  0.7,                                    !- Solar Absorptance
  0.7;                                    !- Visible Absorptance

OS:Material,
  {95ff1c2c-44de-431e-88ac-6e12eb9a200f}, !- Handle
  Metal Decking,                          !- Name
  MediumSmooth,                           !- Roughness
  0.0015,                                 !- Thickness {m}
  45.006,                                 !- Conductivity {W/m-K}
  7680,                                   !- Density {kg/m3}
  418.4,                                  !- Specific Heat {J/kg-K}
  0.9,                                    !- Thermal Absorptance
  0.7,                                    !- Solar Absorptance
  0.3;                                    !- Visible Absorptance

OS:Construction,
  {bc9930d4-e93d-4542-a26a-0773e366f65f}, !- Handle
  ASHRAE 189.1-2009 ExtRoof IEAD ClimateZone 2-5, !- Name
  ,                                       !- Surface Rendering Name
  {191f7ef1-0c18-4c39-97f1-bd76ffdee52a}, !- Layer 1
  {e94a27dc-1712-4d19-9aab-7b5cf93bb7d0}, !- Layer 2
  {95ff1c2c-44de-431e-88ac-6e12eb9a200f}; !- Layer 3

OS:StandardsInformation:Construction,
  {498548f6-31d9-48fd-a2f5-0f1931229c19}, !- Handle
  {bc9930d4-e93d-4542-a26a-0773e366f65f}, !- Construction Name
  ExteriorRoof,                           !- Intended Surface Type
  ASHRAE 189.1-2009;                      !- Standards Construction Type

OS:Material,
  {e94a27dc-1712-4d19-9aab-7b5cf93bb7d0}, !- Handle
  Roof Insulation [21],                   !- Name
  MediumRough,                            !- Roughness
  0.2105,                                 !- Thickness {m}
  0.049,                                  !- Conductivity {W/m-K}
  265,                                    !- Density {kg/m3}
  836.800000000001,                       !- Specific Heat {J/kg-K}
  0.9,                                    !- Thermal Absorptance
  0.7,                                    !- Solar Absorptance
  0.7;                                    !- Visible Absorptance

OS:Construction,
  {a848bd00-0f0e-450b-bcb6-448bd6aba6b9}, !- Handle
  ASHRAE 189.1-2009 ExtRoof IEAD ClimateZone 6, !- Name
  ,                                       !- Surface Rendering Name
  {191f7ef1-0c18-4c39-97f1-bd76ffdee52a}, !- Layer 1
  {f849ad9e-4fcd-437b-8ab8-cb9ab147e1a7}, !- Layer 2
  {95ff1c2c-44de-431e-88ac-6e12eb9a200f}; !- Layer 3

OS:StandardsInformation:Construction,
  {463ce213-b7b3-46d8-8f64-14f095423c33}, !- Handle
  {a848bd00-0f0e-450b-bcb6-448bd6aba6b9}, !- Construction Name
  ExteriorRoof,                           !- Intended Surface Type
  ASHRAE 189.1-2009;                      !- Standards Construction Type

OS:Material,
  {f849ad9e-4fcd-437b-8ab8-cb9ab147e1a7}, !- Handle
  Roof Insulation [24],                   !- Name
  MediumRough,                            !- Roughness
  0.260100000000001,                      !- Thickness {m}
  0.049,                                  !- Conductivity {W/m-K}
  265,                                    !- Density {kg/m3}
  836.800000000001,                       !- Specific Heat {J/kg-K}
  0.9,                                    !- Thermal Absorptance
  0.7,                                    !- Solar Absorptance
  0.7;                                    !- Visible Absorptance

OS:Construction,
  {61c5a333-6c5c-40ae-ab1c-836c736b5c1f}, !- Handle
  ASHRAE 189.1-2009 ExtRoof IEAD ClimateZone 7-8, !- Name
  ,                                       !- Surface Rendering Name
  {191f7ef1-0c18-4c39-97f1-bd76ffdee52a}, !- Layer 1
  {3cd65caa-2eee-440b-8547-750994b7c6e8}, !- Layer 2
  {95ff1c2c-44de-431e-88ac-6e12eb9a200f}; !- Layer 3

OS:StandardsInformation:Construction,
  {1847f9ad-6129-4e05-967d-bd441cf1b8c0}, !- Handle
  {61c5a333-6c5c-40ae-ab1c-836c736b5c1f}, !- Construction Name
  ExteriorRoof,                           !- Intended Surface Type
  ASHRAE 189.1-2009;                      !- Standards Construction Type

OS:Material,
  {3cd65caa-2eee-440b-8547-750994b7c6e8}, !- Handle
  Roof Insulation [26],                   !- Name
  MediumRough,                            !- Roughness
  0.2941,                                 !- Thickness {m}
  0.049,                                  !- Conductivity {W/m-K}
  265,                                    !- Density {kg/m3}
  836.800000000001,                       !- Specific Heat {J/kg-K}
  0.9,                                    !- Thermal Absorptance
  0.7,                                    !- Solar Absorptance
  0.7;                                    !- Visible Absorptance

OS:Construction,
  {f88e36a2-dc09-4518-9d34-4e77714f4fdc}, !- Handle
  ASHRAE 189.1-2009 ExtRoof Metal ClimateZone 1, !- Name
  ,                                       !- Surface Rendering Name
  {f8557723-344e-49ea-b4b2-6d7a0ad02a7c}, !- Layer 1
  {4ff2a8c3-0bae-433c-b15e-3314163cf9e3}; !- Layer 2

OS:StandardsInformation:Construction,
  {5a639558-35f4-434c-a639-e5ab2b62422e}, !- Handle
  {f88e36a2-dc09-4518-9d34-4e77714f4fdc}, !- Construction Name
  ExteriorRoof,                           !- Intended Surface Type
  ASHRAE 189.1-2009;                      !- Standards Construction Type

OS:Material,
  {f8557723-344e-49ea-b4b2-6d7a0ad02a7c}, !- Handle
  Metal Roofing,                          !- Name
  MediumSmooth,                           !- Roughness
  0.0015,                                 !- Thickness {m}
  45.006,                                 !- Conductivity {W/m-K}
  7680,                                   !- Density {kg/m3}
  418.4,                                  !- Specific Heat {J/kg-K}
  0.9,                                    !- Thermal Absorptance
  0.3,                                    !- Solar Absorptance
  0.3;                                    !- Visible Absorptance

OS:Material,
  {4ff2a8c3-0bae-433c-b15e-3314163cf9e3}, !- Handle
  Roof Insulation [19],                   !- Name
  MediumRough,                            !- Roughness
  0.1868,                                 !- Thickness {m}
  0.049,                                  !- Conductivity {W/m-K}
  265,                                    !- Density {kg/m3}
  836.800000000001,                       !- Specific Heat {J/kg-K}
  0.9,                                    !- Thermal Absorptance
  0.7,                                    !- Solar Absorptance
  0.7;                                    !- Visible Absorptance

OS:Construction,
  {9f01cf43-4bfe-4d12-a9e1-b8c21f79656c}, !- Handle
  ASHRAE 189.1-2009 ExtRoof Metal ClimateZone 2-5, !- Name
  ,                                       !- Surface Rendering Name
  {f8557723-344e-49ea-b4b2-6d7a0ad02a7c}, !- Layer 1
  {b7391ace-5855-45c5-8def-0d10b6f401ed}; !- Layer 2

OS:StandardsInformation:Construction,
  {e064b9ad-d4dd-408f-b3cc-f51490518abf}, !- Handle
  {9f01cf43-4bfe-4d12-a9e1-b8c21f79656c}, !- Construction Name
  ExteriorRoof,                           !- Intended Surface Type
  ASHRAE 189.1-2009;                      !- Standards Construction Type

OS:Material,
  {b7391ace-5855-45c5-8def-0d10b6f401ed}, !- Handle
  Roof Insulation [22],                   !- Name
  MediumRough,                            !- Roughness
  0.2358,                                 !- Thickness {m}
  0.049,                                  !- Conductivity {W/m-K}
  265,                                    !- Density {kg/m3}
  836.800000000001,                       !- Specific Heat {J/kg-K}
  0.9,                                    !- Thermal Absorptance
  0.7,                                    !- Solar Absorptance
  0.7;                                    !- Visible Absorptance

OS:Construction,
  {f0945cec-6467-405b-bbd1-2471912df49f}, !- Handle
  ASHRAE 189.1-2009 ExtRoof Metal ClimateZone 6, !- Name
  ,                                       !- Surface Rendering Name
  {f8557723-344e-49ea-b4b2-6d7a0ad02a7c}, !- Layer 1
  {a412ae73-d479-4d52-b799-b7f4809937b5}; !- Layer 2

OS:StandardsInformation:Construction,
  {b681be6e-68b8-4e87-98d2-c56fc1ba58b1}, !- Handle
  {f0945cec-6467-405b-bbd1-2471912df49f}, !- Construction Name
  ExteriorRoof,                           !- Intended Surface Type
  ASHRAE 189.1-2009;                      !- Standards Construction Type

OS:Material,
  {a412ae73-d479-4d52-b799-b7f4809937b5}, !- Handle
  Roof Insulation [25],                   !- Name
  MediumRough,                            !- Roughness
  0.263,                                  !- Thickness {m}
  0.049,                                  !- Conductivity {W/m-K}
  265,                                    !- Density {kg/m3}
  836.800000000001,                       !- Specific Heat {J/kg-K}
  0.9,                                    !- Thermal Absorptance
  0.7,                                    !- Solar Absorptance
  0.7;                                    !- Visible Absorptance

OS:Construction,
  {515c5c7e-af9f-4648-a4d4-55ec6a615b9c}, !- Handle
  ASHRAE 189.1-2009 ExtRoof Metal ClimateZone 7-8, !- Name
  ,                                       !- Surface Rendering Name
  {f8557723-344e-49ea-b4b2-6d7a0ad02a7c}, !- Layer 1
  {4a0d015c-397e-4a1a-acf4-ade11909b0c0}; !- Layer 2

OS:StandardsInformation:Construction,
  {afb913ff-7cb2-4b9c-ae19-32540f8f977f}, !- Handle
  {515c5c7e-af9f-4648-a4d4-55ec6a615b9c}, !- Construction Name
  ExteriorRoof,                           !- Intended Surface Type
  ASHRAE 189.1-2009;                      !- Standards Construction Type

OS:Material,
  {4a0d015c-397e-4a1a-acf4-ade11909b0c0}, !- Handle
  Roof Insulation [27],                   !- Name
  MediumRough,                            !- Roughness
  0.297000000000001,                      !- Thickness {m}
  0.049,                                  !- Conductivity {W/m-K}
  265,                                    !- Density {kg/m3}
  836.800000000001,                       !- Specific Heat {J/kg-K}
  0.9,                                    !- Thermal Absorptance
  0.7,                                    !- Solar Absorptance
  0.7;                                    !- Visible Absorptance

OS:Construction,
  {137fa8b4-6c8b-40aa-86c5-67bbb0d391a8}, !- Handle
  ASHRAE 189.1-2009 ExtWall Mass ClimateZone 1, !- Name
  ,                                       !- Surface Rendering Name
  {70a3da4b-0f3c-4a79-8a05-5306e6b7b534}, !- Layer 1
  {2bd3033b-211c-44e9-84a7-da50753801d2}, !- Layer 2
  {471f55ad-31f9-452d-a310-6d42bd19ea23}, !- Layer 3
  {e8127880-b7fc-487f-a0b6-57716e596400}; !- Layer 4

OS:StandardsInformation:Construction,
  {517c2061-6f2c-4587-afdc-fe610d029588}, !- Handle
  {137fa8b4-6c8b-40aa-86c5-67bbb0d391a8}, !- Construction Name
  ExteriorWall,                           !- Intended Surface Type
  ASHRAE 189.1-2009;                      !- Standards Construction Type

OS:Material,
  {70a3da4b-0f3c-4a79-8a05-5306e6b7b534}, !- Handle
  1IN Stucco,                             !- Name
  Smooth,                                 !- Roughness
  0.0253,                                 !- Thickness {m}
  0.691799999999999,                      !- Conductivity {W/m-K}
  1858,                                   !- Density {kg/m3}
  836.999999999999,                       !- Specific Heat {J/kg-K}
  0.9,                                    !- Thermal Absorptance
  0.92,                                   !- Solar Absorptance
  0.92;                                   !- Visible Absorptance

OS:Material,
  {2bd3033b-211c-44e9-84a7-da50753801d2}, !- Handle
  8IN Concrete HW,                        !- Name
  MediumRough,                            !- Roughness
  0.2033,                                 !- Thickness {m}
  1.72959999999999,                       !- Conductivity {W/m-K}
  2242.99999999999,                       !- Density {kg/m3}
  836.999999999999,                       !- Specific Heat {J/kg-K}
  0.9,                                    !- Thermal Absorptance
  0.65,                                   !- Solar Absorptance
  0.65;                                   !- Visible Absorptance

OS:Material,
  {471f55ad-31f9-452d-a310-6d42bd19ea23}, !- Handle
  Wall Insulation [31],                   !- Name
  MediumRough,                            !- Roughness
  0.0337000000000001,                     !- Thickness {m}
  0.0432,                                 !- Conductivity {W/m-K}
  91,                                     !- Density {kg/m3}
  836.999999999999,                       !- Specific Heat {J/kg-K}
  0.9,                                    !- Thermal Absorptance
  0.5,                                    !- Solar Absorptance
  0.5;                                    !- Visible Absorptance

OS:Construction,
  {e4b63602-213f-4424-84d8-dfb2fe3c4d6b}, !- Handle
  ASHRAE 189.1-2009 ExtWall Mass ClimateZone 2, !- Name
  ,                                       !- Surface Rendering Name
  {70a3da4b-0f3c-4a79-8a05-5306e6b7b534}, !- Layer 1
  {2bd3033b-211c-44e9-84a7-da50753801d2}, !- Layer 2
  {d055dfb4-7cb4-4d9d-83e6-06b2c5b5b7c8}, !- Layer 3
  {e8127880-b7fc-487f-a0b6-57716e596400}; !- Layer 4

OS:StandardsInformation:Construction,
  {6c0ce6fd-c653-4eac-b119-1ffaf7f067ab}, !- Handle
  {e4b63602-213f-4424-84d8-dfb2fe3c4d6b}, !- Construction Name
  ExteriorWall,                           !- Intended Surface Type
  ASHRAE 189.1-2009;                      !- Standards Construction Type

OS:Material,
  {d055dfb4-7cb4-4d9d-83e6-06b2c5b5b7c8}, !- Handle
  Wall Insulation [35],                   !- Name
  MediumRough,                            !- Roughness
  0.0452,                                 !- Thickness {m}
  0.0432,                                 !- Conductivity {W/m-K}
  91,                                     !- Density {kg/m3}
  836.999999999999,                       !- Specific Heat {J/kg-K}
  0.9,                                    !- Thermal Absorptance
  0.5,                                    !- Solar Absorptance
  0.5;                                    !- Visible Absorptance

OS:Construction,
  {914df43f-f974-4352-8986-2b0bf8fcdfd7}, !- Handle
  ASHRAE 189.1-2009 ExtWall Mass ClimateZone 3, !- Name
  ,                                       !- Surface Rendering Name
  {70a3da4b-0f3c-4a79-8a05-5306e6b7b534}, !- Layer 1
  {2bd3033b-211c-44e9-84a7-da50753801d2}, !- Layer 2
  {c5525049-f118-4b94-bc93-c8d5d1c43e06}, !- Layer 3
  {e8127880-b7fc-487f-a0b6-57716e596400}; !- Layer 4

OS:StandardsInformation:Construction,
  {cc6d0de0-ac0a-42be-ab05-9bc8039f8651}, !- Handle
  {914df43f-f974-4352-8986-2b0bf8fcdfd7}, !- Construction Name
  ExteriorWall,                           !- Intended Surface Type
  ASHRAE 189.1-2009;                      !- Standards Construction Type

OS:Material,
  {c5525049-f118-4b94-bc93-c8d5d1c43e06}, !- Handle
  Wall Insulation [36],                   !- Name
  MediumRough,                            !- Roughness
  0.0565999999999999,                     !- Thickness {m}
  0.0432,                                 !- Conductivity {W/m-K}
  91,                                     !- Density {kg/m3}
  836.999999999999,                       !- Specific Heat {J/kg-K}
  0.9,                                    !- Thermal Absorptance
  0.5,                                    !- Solar Absorptance
  0.5;                                    !- Visible Absorptance

OS:Construction,
  {efd59fcf-dd27-4759-abbc-6b3f3e92dfa8}, !- Handle
  ASHRAE 189.1-2009 ExtWall Mass ClimateZone 4, !- Name
  ,                                       !- Surface Rendering Name
  {70a3da4b-0f3c-4a79-8a05-5306e6b7b534}, !- Layer 1
  {2bd3033b-211c-44e9-84a7-da50753801d2}, !- Layer 2
  {306a9051-7009-49de-b47e-a597741bf008}, !- Layer 3
  {e8127880-b7fc-487f-a0b6-57716e596400}; !- Layer 4

OS:StandardsInformation:Construction,
  {fb3b9a13-b006-4f7b-89ee-608a09e8f122}, !- Handle
  {efd59fcf-dd27-4759-abbc-6b3f3e92dfa8}, !- Construction Name
  ExteriorWall,                           !- Intended Surface Type
  ASHRAE 189.1-2009;                      !- Standards Construction Type

OS:Material,
  {306a9051-7009-49de-b47e-a597741bf008}, !- Handle
  Wall Insulation [37],                   !- Name
  MediumRough,                            !- Roughness
  0.0680999999999999,                     !- Thickness {m}
  0.0432,                                 !- Conductivity {W/m-K}
  91,                                     !- Density {kg/m3}
  836.999999999999,                       !- Specific Heat {J/kg-K}
  0.9,                                    !- Thermal Absorptance
  0.5,                                    !- Solar Absorptance
  0.5;                                    !- Visible Absorptance

OS:Construction,
  {ac422b82-00d9-4fe6-a470-20b048693cb6}, !- Handle
  ASHRAE 189.1-2009 ExtWall Mass ClimateZone 5, !- Name
  ,                                       !- Surface Rendering Name
  {70a3da4b-0f3c-4a79-8a05-5306e6b7b534}, !- Layer 1
  {2bd3033b-211c-44e9-84a7-da50753801d2}, !- Layer 2
  {458858d7-e896-4731-8e69-e59499fe178a}, !- Layer 3
  {e8127880-b7fc-487f-a0b6-57716e596400}; !- Layer 4

OS:StandardsInformation:Construction,
  {e9eb8d29-3c82-432d-8347-f26d6f9ae890}, !- Handle
  {ac422b82-00d9-4fe6-a470-20b048693cb6}, !- Construction Name
  ExteriorWall,                           !- Intended Surface Type
  ASHRAE 189.1-2009;                      !- Standards Construction Type

OS:Material,
  {458858d7-e896-4731-8e69-e59499fe178a}, !- Handle
  Wall Insulation [40],                   !- Name
  MediumRough,                            !- Roughness
  0.0793999999999999,                     !- Thickness {m}
  0.0432,                                 !- Conductivity {W/m-K}
  91,                                     !- Density {kg/m3}
  836.999999999999,                       !- Specific Heat {J/kg-K}
  0.9,                                    !- Thermal Absorptance
  0.5,                                    !- Solar Absorptance
  0.5;                                    !- Visible Absorptance

OS:Construction,
  {b2799f79-e3b9-4c3f-95df-3fea9946b40c}, !- Handle
  ASHRAE 189.1-2009 ExtWall Mass ClimateZone 6, !- Name
  ,                                       !- Surface Rendering Name
  {70a3da4b-0f3c-4a79-8a05-5306e6b7b534}, !- Layer 1
  {2bd3033b-211c-44e9-84a7-da50753801d2}, !- Layer 2
  {4715eefe-e0f7-400e-8252-db4255e2c240}, !- Layer 3
  {e8127880-b7fc-487f-a0b6-57716e596400}; !- Layer 4

OS:StandardsInformation:Construction,
  {eb3e91ed-1999-4d12-a7b6-d82edbe5b25e}, !- Handle
  {b2799f79-e3b9-4c3f-95df-3fea9946b40c}, !- Construction Name
  ExteriorWall,                           !- Intended Surface Type
  ASHRAE 189.1-2009;                      !- Standards Construction Type

OS:Material,
  {4715eefe-e0f7-400e-8252-db4255e2c240}, !- Handle
  Wall Insulation [42],                   !- Name
  MediumRough,                            !- Roughness
  0.0913999999999999,                     !- Thickness {m}
  0.0432,                                 !- Conductivity {W/m-K}
  91,                                     !- Density {kg/m3}
  836.999999999999,                       !- Specific Heat {J/kg-K}
  0.9,                                    !- Thermal Absorptance
  0.5,                                    !- Solar Absorptance
  0.5;                                    !- Visible Absorptance

OS:Construction,
  {b8fed6e3-e55c-495a-8760-253b16adcb58}, !- Handle
  ASHRAE 189.1-2009 ExtWall Mass ClimateZone 7-8, !- Name
  ,                                       !- Surface Rendering Name
  {70a3da4b-0f3c-4a79-8a05-5306e6b7b534}, !- Layer 1
  {2bd3033b-211c-44e9-84a7-da50753801d2}, !- Layer 2
  {d45bb4f2-e8a9-4ed7-8a89-248545c88403}, !- Layer 3
  {e8127880-b7fc-487f-a0b6-57716e596400}; !- Layer 4

OS:StandardsInformation:Construction,
  {5f2c2f36-b30e-4949-a585-812bcab73e9b}, !- Handle
  {b8fed6e3-e55c-495a-8760-253b16adcb58}, !- Construction Name
  ExteriorWall,                           !- Intended Surface Type
  ASHRAE 189.1-2009;                      !- Standards Construction Type

OS:Material,
  {d45bb4f2-e8a9-4ed7-8a89-248545c88403}, !- Handle
  Wall Insulation [44],                   !- Name
  MediumRough,                            !- Roughness
  0.1104,                                 !- Thickness {m}
  0.0432,                                 !- Conductivity {W/m-K}
  91,                                     !- Density {kg/m3}
  836.999999999999,                       !- Specific Heat {J/kg-K}
  0.9,                                    !- Thermal Absorptance
  0.5,                                    !- Solar Absorptance
  0.5;                                    !- Visible Absorptance

OS:Construction,
  {719b9146-a6d3-4fc5-a5d7-2fbee469bfae}, !- Handle
  ASHRAE 189.1-2009 ExtWall Mass ClimateZone alt-res 1, !- Name
  ,                                       !- Surface Rendering Name
  {70a3da4b-0f3c-4a79-8a05-5306e6b7b534}, !- Layer 1
  {2bd3033b-211c-44e9-84a7-da50753801d2}, !- Layer 2
  {d055dfb4-7cb4-4d9d-83e6-06b2c5b5b7c8}, !- Layer 3
  {e8127880-b7fc-487f-a0b6-57716e596400}; !- Layer 4

OS:StandardsInformation:Construction,
  {417d78ef-14bc-4bd2-b4db-1b4fa92fb8a0}, !- Handle
  {719b9146-a6d3-4fc5-a5d7-2fbee469bfae}, !- Construction Name
  ExteriorWall,                           !- Intended Surface Type
  ASHRAE 189.1-2009;                      !- Standards Construction Type

OS:Construction,
  {efcf0953-48cd-4859-8729-29f7d13c69c4}, !- Handle
  ASHRAE 189.1-2009 ExtWall Mass ClimateZone alt-res 2, !- Name
  ,                                       !- Surface Rendering Name
  {70a3da4b-0f3c-4a79-8a05-5306e6b7b534}, !- Layer 1
  {2bd3033b-211c-44e9-84a7-da50753801d2}, !- Layer 2
  {c5525049-f118-4b94-bc93-c8d5d1c43e06}, !- Layer 3
  {e8127880-b7fc-487f-a0b6-57716e596400}; !- Layer 4

OS:StandardsInformation:Construction,
  {b83976bc-6177-4a35-aa90-1365f085f804}, !- Handle
  {efcf0953-48cd-4859-8729-29f7d13c69c4}, !- Construction Name
  ExteriorWall,                           !- Intended Surface Type
  ASHRAE 189.1-2009;                      !- Standards Construction Type

OS:Construction,
  {f082f296-188e-4209-8db8-b25033d876b4}, !- Handle
  ASHRAE 189.1-2009 ExtWall Mass ClimateZone alt-res 3, !- Name
  ,                                       !- Surface Rendering Name
  {70a3da4b-0f3c-4a79-8a05-5306e6b7b534}, !- Layer 1
  {2bd3033b-211c-44e9-84a7-da50753801d2}, !- Layer 2
  {306a9051-7009-49de-b47e-a597741bf008}, !- Layer 3
  {e8127880-b7fc-487f-a0b6-57716e596400}; !- Layer 4

OS:StandardsInformation:Construction,
  {7009f442-7d29-41f5-8e88-389f87b792bc}, !- Handle
  {f082f296-188e-4209-8db8-b25033d876b4}, !- Construction Name
  ExteriorWall,                           !- Intended Surface Type
  ASHRAE 189.1-2009;                      !- Standards Construction Type

OS:Construction,
  {d31c0026-b434-4816-80e7-d8503deae135}, !- Handle
  ASHRAE 189.1-2009 ExtWall Mass ClimateZone alt-res 4, !- Name
  ,                                       !- Surface Rendering Name
  {70a3da4b-0f3c-4a79-8a05-5306e6b7b534}, !- Layer 1
  {2bd3033b-211c-44e9-84a7-da50753801d2}, !- Layer 2
  {458858d7-e896-4731-8e69-e59499fe178a}, !- Layer 3
  {e8127880-b7fc-487f-a0b6-57716e596400}; !- Layer 4

OS:StandardsInformation:Construction,
  {ea8e13dc-46ba-405d-b9ba-81e570b1c5de}, !- Handle
  {d31c0026-b434-4816-80e7-d8503deae135}, !- Construction Name
  ExteriorWall,                           !- Intended Surface Type
  ASHRAE 189.1-2009;                      !- Standards Construction Type

OS:Construction,
  {df7eae49-ab12-41fb-a733-99374e2414a8}, !- Handle
  ASHRAE 189.1-2009 ExtWall Mass ClimateZone alt-res 5, !- Name
  ,                                       !- Surface Rendering Name
  {70a3da4b-0f3c-4a79-8a05-5306e6b7b534}, !- Layer 1
  {2bd3033b-211c-44e9-84a7-da50753801d2}, !- Layer 2
  {4715eefe-e0f7-400e-8252-db4255e2c240}, !- Layer 3
  {e8127880-b7fc-487f-a0b6-57716e596400}; !- Layer 4

OS:StandardsInformation:Construction,
  {0fb275ca-ebbd-4475-aa6a-fb2ca4884b25}, !- Handle
  {df7eae49-ab12-41fb-a733-99374e2414a8}, !- Construction Name
  ExteriorWall,                           !- Intended Surface Type
  ASHRAE 189.1-2009;                      !- Standards Construction Type

OS:Construction,
  {36a60e98-7845-467c-81d2-fd2c49d39185}, !- Handle
  ASHRAE 189.1-2009 ExtWall Mass ClimateZone alt-res 6, !- Name
  ,                                       !- Surface Rendering Name
  {70a3da4b-0f3c-4a79-8a05-5306e6b7b534}, !- Layer 1
  {2bd3033b-211c-44e9-84a7-da50753801d2}, !- Layer 2
  {d45bb4f2-e8a9-4ed7-8a89-248545c88403}, !- Layer 3
  {e8127880-b7fc-487f-a0b6-57716e596400}; !- Layer 4

OS:StandardsInformation:Construction,
  {7129c0a7-97a7-4190-acc7-d78a77ae4bc5}, !- Handle
  {36a60e98-7845-467c-81d2-fd2c49d39185}, !- Construction Name
  ExteriorWall,                           !- Intended Surface Type
  ASHRAE 189.1-2009;                      !- Standards Construction Type

OS:Construction,
  {920e80f9-62d3-4688-b15f-60c76b2646a1}, !- Handle
  ASHRAE 189.1-2009 ExtWall Mass ClimateZone alt-res 7, !- Name
  ,                                       !- Surface Rendering Name
  {70a3da4b-0f3c-4a79-8a05-5306e6b7b534}, !- Layer 1
  {2bd3033b-211c-44e9-84a7-da50753801d2}, !- Layer 2
  {d45bb4f2-e8a9-4ed7-8a89-248545c88403}, !- Layer 3
  {e8127880-b7fc-487f-a0b6-57716e596400}; !- Layer 4

OS:StandardsInformation:Construction,
  {f9645d75-2209-41cb-8352-3d4d90624402}, !- Handle
  {920e80f9-62d3-4688-b15f-60c76b2646a1}, !- Construction Name
  ExteriorWall,                           !- Intended Surface Type
  ASHRAE 189.1-2009;                      !- Standards Construction Type

OS:Construction,
  {e4a0d329-c64e-4e41-9df2-58b3f63d089e}, !- Handle
  ASHRAE 189.1-2009 ExtWall Mass ClimateZone alt-res 8, !- Name