
OS:Version,
  {b49c43d9-c794-4db1-83cb-d1c97fe28486}, !- Handle
  0.11.5;                                 !- Version Identifier

OS:Schedule:Constant,
  {6bbda1e5-84b1-4537-b327-f00816531bb4}, !- Handle
  Always On Discrete,                     !- Name
  {ec41a0a3-d0d5-4183-9936-b9da739ef82c}, !- Schedule Type Limits Name
  1;                                      !- Value

OS:ScheduleTypeLimits,
  {ec41a0a3-d0d5-4183-9936-b9da739ef82c}, !- Handle
  Always On Discrete Limits,              !- Name
  0,                                      !- Lower Limit Value {BasedOnField A4}
  1,                                      !- Upper Limit Value {BasedOnField A4}
  Discrete,                               !- Numeric Type
  Availability;                           !- Unit Type

OS:Building,
  {333dff6a-734f-46ba-8ae4-c5bc22cef4b1}, ! Handle
  Warehouse,                              ! Name
  ,                                       ! Building Type
  -0,                                     ! North Axis
  ,                                       ! Nominal Floor to Floor Height
  {5bbad3f2-f1ec-46bb-a562-a3bb04663132}, ! Space Type Name
  {0bbb0871-bf79-42e1-8bf9-300cfd840a4b}, ! Default Construction Set Name
  ;                                       ! Default Schedule Set Name

OS:Construction,
  {d1e5228f-97d2-4630-99cd-a2c220d248c9}, ! Handle
  000 AtticRoof ClimateZone 1-8,          ! Name
  {b8ebfa71-ebfe-4589-92e9-10833016f5af}, ! Surface Rendering Name
  {889ca79a-97b1-4d11-9f75-64b36d5838bc}, ! Layer 1
  {cad72488-8d21-4897-ae5a-80d16dba802d}; ! Layer 2

OS:Construction,
  {50cc8c25-7ae8-40b2-aabb-215d1b489030}, ! Handle
  000 ExtSlabCarpet 4in ClimateZone 1-8,  ! Name
  {540c0008-aad7-4a3e-b6cf-8e57ba99e782}, ! Surface Rendering Name
  {bfb537b0-d45d-483c-9449-d4c3b823f0cf}, ! Layer 1
  {0dbc12eb-ae38-4ebe-9ef1-dd6f30795f2f}; ! Layer 2

OS:Construction,
  {2021b0d3-fa9e-44fb-a796-e1ce796214cd}, ! Handle
  000 ExtSlabCarpet 8in ClimateZone 1-8,  ! Name
  {9c230fb4-9e2f-4a0c-afb1-208ff255ab9b}, ! Surface Rendering Name
  {9a44fd03-5884-42e2-95be-5ebf702e7dad}, ! Layer 1
  {0dbc12eb-ae38-4ebe-9ef1-dd6f30795f2f}; ! Layer 2

OS:Construction,
  {acdae408-5457-4e10-a3b0-3de2a01bbbfc}, ! Handle
  000 ExtSlab 4in ClimateZone 1-8,        ! Name
  {7688a2b0-1631-4918-8707-e3ee2ec2579a}, ! Surface Rendering Name
  {bfb537b0-d45d-483c-9449-d4c3b823f0cf}; ! Layer 1

OS:Construction,
  {1877bb37-8008-40e9-a218-7ea44843f3a7}, ! Handle
  000 ExtSlab 8in ClimateZone 1-8,        ! Name
  {87365cb3-f703-4ae8-9a3c-898348908b4a}, ! Surface Rendering Name
  {9a44fd03-5884-42e2-95be-5ebf702e7dad}; ! Layer 1

OS:Construction,
  {4bc5817f-2d0c-4684-be42-a50ac84c3eeb}, ! Handle
  000 Exterior Door,                      ! Name
  {73ed8036-1b7e-405a-aa8c-543cf788e151}, ! Surface Rendering Name
  {f903797a-2553-4bdf-a375-037c776b66db}, ! Layer 1
  {d399964b-709b-425f-9c8b-d411e31f2c2c}; ! Layer 2

OS:Construction,
  {ca3cac51-027e-4eb2-aeed-8b35c65c4cf3}, ! Handle
  000 Exterior Floor,                     ! Name
  {4c425040-530d-4311-a9a3-c50c7d81df8a}, ! Surface Rendering Name
  {31bce793-8945-4b72-8128-eba4684b3337}, ! Layer 1
  {dd97e884-3681-43c3-ac4a-ced1104230af}; ! Layer 2

OS:Construction,
  {f0b7365d-fc0f-4e8d-ab86-1b779b322683}, ! Handle
  000 Exterior Roof,                      ! Name
  {1dd4b252-0ef6-4529-94d5-268a0471bd11}, ! Surface Rendering Name
  {680b7166-c4aa-4d9b-af96-6adecd314e43}, ! Layer 1
  {f67d3b82-aa7f-48e9-a46b-bad2f7c4a2cb}, ! Layer 2
  {457f84e6-ec75-4c16-a580-11ba5311793f}; ! Layer 3

OS:Construction,
  {a3e48a76-7796-4ca0-bcc8-793d6c1168f2}, ! Handle
  000 Exterior Wall,                      ! Name
  {9187463b-7f85-46db-a3b1-2d1f59926130}, ! Surface Rendering Name
  {c35401d8-25a8-4908-b65a-d8b75cf706ee}, ! Layer 1
  {dd97e884-3681-43c3-ac4a-ced1104230af}, ! Layer 2
  {31bce793-8945-4b72-8128-eba4684b3337}, ! Layer 3
  {51980f59-2b20-47ad-b007-40e1c446629f}, ! Layer 4
  {439da22d-473c-4c79-b8cf-1674eb6db272}; ! Layer 5

OS:Construction,
  {abb24d8c-9565-478b-84bb-ede7fc143937}, ! Handle
  000 Exterior Window,                    ! Name
  {37ef6ab0-2b47-4ac0-8f4c-374eb35f37c7}, ! Surface Rendering Name
  {0741e77b-93f2-416e-b30b-b164e05972e5}, ! Layer 1
  {7468a3c6-0391-492b-81b4-feaae408450b}, ! Layer 2
  {0741e77b-93f2-416e-b30b-b164e05972e5}; ! Layer 3

OS:Construction,
  {0f210e96-ad7e-4c36-b499-658a878678ce}, ! Handle
  000 Interior Ceiling,                   ! Name
  {75fff6d1-479a-4588-ac43-4e6f95f269e3}, ! Surface Rendering Name
  {680b7166-c4aa-4d9b-af96-6adecd314e43}, ! Layer 1
  {f67d3b82-aa7f-48e9-a46b-bad2f7c4a2cb}, ! Layer 2
  {457f84e6-ec75-4c16-a580-11ba5311793f}; ! Layer 3

OS:Construction,
  {976f0661-4236-4039-9927-312aa4563b8c}, ! Handle
  000 Interior Door,                      ! Name
  {166de063-a4a7-4dc1-9055-327daf1bdfa4}, ! Surface Rendering Name
  {ae8a0ff0-6745-40b1-9ba2-4c62309ce972}; ! Layer 1

OS:Construction,
  {63484f9c-d834-482f-b0e6-adea50a9c81d}, ! Handle
  000 Interior Floor,                     ! Name
  {4e5c173e-4b6f-410a-af86-66aff1c38ee7}, ! Surface Rendering Name
  {457f84e6-ec75-4c16-a580-11ba5311793f}, ! Layer 1
  {f67d3b82-aa7f-48e9-a46b-bad2f7c4a2cb}, ! Layer 2
  {680b7166-c4aa-4d9b-af96-6adecd314e43}; ! Layer 3

OS:Construction,
  {85b07b6a-18eb-47c1-8a63-9475850d6fe1}, ! Handle
  000 Interior Partition,                 ! Name
  {97504cf5-09fe-4956-9d1a-95121ef90a12}, ! Surface Rendering Name
  {ae8a0ff0-6745-40b1-9ba2-4c62309ce972}; ! Layer 1

OS:Construction,
  {dc1558f7-0eb0-48a9-97d3-d9ad4766394a}, ! Handle
  000 Interior Wall,                      ! Name
  {db3ae7e3-b083-4db4-8d8c-effd734a96a6}, ! Surface Rendering Name
  {439da22d-473c-4c79-b8cf-1674eb6db272}, ! Layer 1
  {51980f59-2b20-47ad-b007-40e1c446629f}, ! Layer 2
  {439da22d-473c-4c79-b8cf-1674eb6db272}; ! Layer 3

OS:Construction,
  {78169d0c-a15e-4fe6-9575-7823c3ae8ebe}, ! Handle
  000 Interior Window,                    ! Name
  {bab28fe4-bb5f-48aa-ab7e-b73ada2bfed6}, ! Surface Rendering Name
  {0741e77b-93f2-416e-b30b-b164e05972e5}; ! Layer 1

OS:Construction,
  {7e3cdc19-a558-4bc1-84fa-21349bb431b2}, ! Handle
  ASHRAE 189.1-2009 AtticFloor ClimateZone 1-8, ! Name
  {8c992257-c23d-4df0-9115-cea719ca9360}, ! Surface Rendering Name
  {69ecc4d0-720b-4220-8e9f-7d089df9d91e}, ! Layer 1
  {f904f30b-9339-40da-b988-2b033712d7db}, ! Layer 2
  {69ecc4d0-720b-4220-8e9f-7d089df9d91e}; ! Layer 3

OS:Construction,
  {e9349d5a-8514-49ee-aca5-836feca6fb12}, ! Handle
  ASHRAE 189.1-2009 ExtRoof IEAD ClimateZone 1, ! Name
  {5f6a6855-5a70-4ca4-972b-d9dfe5e9764f}, ! Surface Rendering Name
  {889ca79a-97b1-4d11-9f75-64b36d5838bc}, ! Layer 1
  {b68b9533-f3bf-4eb4-a22b-19efc3b68fd8}, ! Layer 2
  {cad72488-8d21-4897-ae5a-80d16dba802d}; ! Layer 3

OS:Construction,
  {4d1bfba1-3891-4f88-be03-75e21e3b51a5}, ! Handle
  ASHRAE 189.1-2009 ExtRoof IEAD ClimateZone 2-5, ! Name
  {3d530d69-190e-4da6-ae24-4b8a4e842eff}, ! Surface Rendering Name
  {889ca79a-97b1-4d11-9f75-64b36d5838bc}, ! Layer 1
  {0717479e-c523-4699-b11b-b4d0ee45e2fa}, ! Layer 2
  {cad72488-8d21-4897-ae5a-80d16dba802d}; ! Layer 3

OS:Construction,
  {ba1f8837-3e7f-497e-9822-841bac30e87e}, ! Handle
  ASHRAE 189.1-2009 ExtRoof IEAD ClimateZone 6, ! Name
  {1a0b52ab-152f-4ccc-94e5-66a79d0a64ce}, ! Surface Rendering Name
  {889ca79a-97b1-4d11-9f75-64b36d5838bc}, ! Layer 1
  {6f17a067-c474-4fda-841c-b90b257f5bf4}, ! Layer 2
  {cad72488-8d21-4897-ae5a-80d16dba802d}; ! Layer 3

OS:Construction,
  {5d70cef6-aad1-4407-9d26-56f3fb677d20}, ! Handle
  ASHRAE 189.1-2009 ExtRoof IEAD ClimateZone 7-8, ! Name
  {ce27fa26-3a4b-47a2-8495-afbb760d5a40}, ! Surface Rendering Name
  {889ca79a-97b1-4d11-9f75-64b36d5838bc}, ! Layer 1
  {2785c5d4-4945-4b9a-b545-875576f96350}, ! Layer 2
  {cad72488-8d21-4897-ae5a-80d16dba802d}; ! Layer 3

OS:Construction,
  {e9a30b88-070c-49ca-bde9-1937243b89d8}, ! Handle
  ASHRAE 189.1-2009 ExtRoof Metal ClimateZone 1, ! Name
  {9c3f1eed-ced1-4421-9359-3d4d0863e133}, ! Surface Rendering Name
  {1248ff14-1406-42f5-b280-9f74412eb918}, ! Layer 1
  {c05b39fa-56e5-42f6-b541-6bff1f4d61dd}; ! Layer 2

OS:Construction,
  {cde5fb84-8026-4d77-8e98-4131df30cac9}, ! Handle
  ASHRAE 189.1-2009 ExtRoof Metal ClimateZone 2-5, ! Name
  {33225640-25cd-4785-925f-6eef5df0a0e9}, ! Surface Rendering Name
  {1248ff14-1406-42f5-b280-9f74412eb918}, ! Layer 1
  {425b299b-2d1b-449a-86d4-f2410dcbeb59}; ! Layer 2

OS:Construction,
  {5f9ff83b-3a22-4d29-bc2a-19e6977e2275}, ! Handle
  ASHRAE 189.1-2009 ExtRoof Metal ClimateZone 6, ! Name
  {c6280362-9503-44c5-b596-65a3fd387283}, ! Surface Rendering Name
  {1248ff14-1406-42f5-b280-9f74412eb918}, ! Layer 1
  {65e2c1fb-33bf-4d81-936b-452f2a27ee35}; ! Layer 2

OS:Construction,
  {d39dca0b-ea4e-4d79-aaaf-4438f398ca57}, ! Handle
  ASHRAE 189.1-2009 ExtRoof Metal ClimateZone 7-8, ! Name
  {c7a87cb0-ea1e-4a13-a372-9b9ee6a8ec67}, ! Surface Rendering Name
  {1248ff14-1406-42f5-b280-9f74412eb918}, ! Layer 1
  {1e913287-7d45-4d4c-99e3-10c73829ec80}; ! Layer 2

OS:Construction,
  {141eff2c-d776-4cac-a72b-95821a58f07e}, ! Handle
  ASHRAE 189.1-2009 ExtWall Mass ClimateZone 1, ! Name
  {62461727-3485-47c3-84c5-503c97a6a2be}, ! Surface Rendering Name
  {9f2b333f-af74-4882-ac87-3448d3bdaea6}, ! Layer 1
  {3f93e0ac-ab69-45da-987e-415918b1ffde}, ! Layer 2
  {e376bac6-0e2a-4968-a404-8ffb68821f20}, ! Layer 3
  {69ecc4d0-720b-4220-8e9f-7d089df9d91e}; ! Layer 4

OS:Construction,
  {9486ffaf-5ac0-4a0f-9f0d-46c5862b18b1}, ! Handle
  ASHRAE 189.1-2009 ExtWall Mass ClimateZone 2, ! Name
  {df73c827-65d2-45e0-a1fc-abb82473e59a}, ! Surface Rendering Name
  {9f2b333f-af74-4882-ac87-3448d3bdaea6}, ! Layer 1
  {3f93e0ac-ab69-45da-987e-415918b1ffde}, ! Layer 2
  {c5bba3a7-8b49-4c99-84bf-6fa1d5730ad1}, ! Layer 3
  {69ecc4d0-720b-4220-8e9f-7d089df9d91e}; ! Layer 4

OS:Construction,
  {1dc289a5-d3aa-4cd7-98a1-b598f597d35a}, ! Handle
  ASHRAE 189.1-2009 ExtWall Mass ClimateZone 3, ! Name
  {bd4c8d05-b630-418e-bb41-ed9ce8376a00}, ! Surface Rendering Name
  {9f2b333f-af74-4882-ac87-3448d3bdaea6}, ! Layer 1
  {3f93e0ac-ab69-45da-987e-415918b1ffde}, ! Layer 2
  {23a19725-0133-40b5-bc90-e36f1cb20458}, ! Layer 3
  {69ecc4d0-720b-4220-8e9f-7d089df9d91e}; ! Layer 4

OS:Construction,
  {7ed5c36f-e106-4275-bb34-21fdfc641ccd}, ! Handle
  ASHRAE 189.1-2009 ExtWall Mass ClimateZone 4, ! Name
  {e6cd2a28-8d8d-447d-bc49-1e772c04d1e2}, ! Surface Rendering Name
  {9f2b333f-af74-4882-ac87-3448d3bdaea6}, ! Layer 1
  {3f93e0ac-ab69-45da-987e-415918b1ffde}, ! Layer 2
  {8fee9c31-5eb1-47a5-be39-52e0fdc1c1bc}, ! Layer 3
  {69ecc4d0-720b-4220-8e9f-7d089df9d91e}; ! Layer 4

OS:Construction,
  {466e7835-4acf-4b93-acbd-97754d251a97}, ! Handle
  ASHRAE 189.1-2009 ExtWall Mass ClimateZone 5, ! Name
  {b2a497ab-021a-433d-83a8-c12dc56a1298}, ! Surface Rendering Name
  {9f2b333f-af74-4882-ac87-3448d3bdaea6}, ! Layer 1
  {3f93e0ac-ab69-45da-987e-415918b1ffde}, ! Layer 2
  {d398c088-b2f7-4834-bb53-d2b2c5a4868b}, ! Layer 3
  {69ecc4d0-720b-4220-8e9f-7d089df9d91e}; ! Layer 4

OS:Construction,
  {9c9fe018-0cc5-4151-9c97-c2b70acc6b6e}, ! Handle
  ASHRAE 189.1-2009 ExtWall Mass ClimateZone 6, ! Name
  {845fd7a1-1487-4127-89dc-106b89eb8cb7}, ! Surface Rendering Name
  {9f2b333f-af74-4882-ac87-3448d3bdaea6}, ! Layer 1
  {3f93e0ac-ab69-45da-987e-415918b1ffde}, ! Layer 2
  {ca811584-297a-4da4-a70a-ee77acaa7a45}, ! Layer 3
  {69ecc4d0-720b-4220-8e9f-7d089df9d91e}; ! Layer 4

OS:Construction,
  {6f4b8b1a-40de-46f5-b4dd-c0b7eb131903}, ! Handle
  ASHRAE 189.1-2009 ExtWall Mass ClimateZone 7-8, ! Name
  {e4a6112a-5b78-4ac2-9a65-e803a4b71fda}, ! Surface Rendering Name
  {9f2b333f-af74-4882-ac87-3448d3bdaea6}, ! Layer 1
  {3f93e0ac-ab69-45da-987e-415918b1ffde}, ! Layer 2
  {e9abac98-3671-4a32-a724-b4a42fd352ec}, ! Layer 3
  {69ecc4d0-720b-4220-8e9f-7d089df9d91e}; ! Layer 4

OS:Construction,
  {5342442f-9cef-49f7-9af3-1c945ea5a1eb}, ! Handle
  ASHRAE 189.1-2009 ExtWall Mass ClimateZone alt-res 1, ! Name
  {bdf293b1-ace5-4aa3-aa31-3e1488057277}, ! Surface Rendering Name
  {9f2b333f-af74-4882-ac87-3448d3bdaea6}, ! Layer 1
  {3f93e0ac-ab69-45da-987e-415918b1ffde}, ! Layer 2
  {c5bba3a7-8b49-4c99-84bf-6fa1d5730ad1}, ! Layer 3
  {69ecc4d0-720b-4220-8e9f-7d089df9d91e}; ! Layer 4

OS:Construction,
  {5ca2dfdc-06e4-4a4d-8273-14790e0a5d8d}, ! Handle
  ASHRAE 189.1-2009 ExtWall Mass ClimateZone alt-res 2, ! Name
  {e98ce64c-10ed-4d74-820c-77205fd1c38b}, ! Surface Rendering Name
  {9f2b333f-af74-4882-ac87-3448d3bdaea6}, ! Layer 1
  {3f93e0ac-ab69-45da-987e-415918b1ffde}, ! Layer 2
  {23a19725-0133-40b5-bc90-e36f1cb20458}, ! Layer 3
  {69ecc4d0-720b-4220-8e9f-7d089df9d91e}; ! Layer 4

OS:Construction,
  {d40ca8ec-2a43-423f-bb9a-f39cc549a55d}, ! Handle
  ASHRAE 189.1-2009 ExtWall Mass ClimateZone alt-res 3, ! Name
  {b964db2f-48a8-4681-9c6f-07f2bb2ab53a}, ! Surface Rendering Name
  {9f2b333f-af74-4882-ac87-3448d3bdaea6}, ! Layer 1
  {3f93e0ac-ab69-45da-987e-415918b1ffde}, ! Layer 2
  {8fee9c31-5eb1-47a5-be39-52e0fdc1c1bc}, ! Layer 3
  {69ecc4d0-720b-4220-8e9f-7d089df9d91e}; ! Layer 4

OS:Construction,
  {2f6aad6c-5bfe-4980-bdb0-14917d68fdfc}, ! Handle
  ASHRAE 189.1-2009 ExtWall Mass ClimateZone alt-res 4, ! Name
  {304641f6-f862-4f24-8e88-0b2dcbb34fa9}, ! Surface Rendering Name
  {9f2b333f-af74-4882-ac87-3448d3bdaea6}, ! Layer 1
  {3f93e0ac-ab69-45da-987e-415918b1ffde}, ! Layer 2
  {d398c088-b2f7-4834-bb53-d2b2c5a4868b}, ! Layer 3
  {69ecc4d0-720b-4220-8e9f-7d089df9d91e}; ! Layer 4

OS:Construction,
  {a820ab4b-fc60-48cc-974e-131c02f4122b}, ! Handle
  ASHRAE 189.1-2009 ExtWall Mass ClimateZone alt-res 5, ! Name
  {f51a4a6e-fe61-4226-a017-e5128e542684}, ! Surface Rendering Name
  {9f2b333f-af74-4882-ac87-3448d3bdaea6}, ! Layer 1
  {3f93e0ac-ab69-45da-987e-415918b1ffde}, ! Layer 2
  {ca811584-297a-4da4-a70a-ee77acaa7a45}, ! Layer 3
  {69ecc4d0-720b-4220-8e9f-7d089df9d91e}; ! Layer 4

OS:Construction,
  {43e91569-8aa0-433c-86d0-48871c142fd7}, ! Handle
  ASHRAE 189.1-2009 ExtWall Mass ClimateZone alt-res 6, ! Name
  {53e32a71-e25d-4501-800a-91fae64324b1}, ! Surface Rendering Name
  {9f2b333f-af74-4882-ac87-3448d3bdaea6}, ! Layer 1
  {3f93e0ac-ab69-45da-987e-415918b1ffde}, ! Layer 2
  {e9abac98-3671-4a32-a724-b4a42fd352ec}, ! Layer 3
  {69ecc4d0-720b-4220-8e9f-7d089df9d91e}; ! Layer 4

OS:Construction,
  {54ce6f7f-b149-4c7e-a550-779af074f8ed}, ! Handle
  ASHRAE 189.1-2009 ExtWall Mass ClimateZone alt-res 7, ! Name
  {019b93c7-10f9-44fb-bb1e-976824f51d1a}, ! Surface Rendering Name
  {9f2b333f-af74-4882-ac87-3448d3bdaea6}, ! Layer 1
  {3f93e0ac-ab69-45da-987e-415918b1ffde}, ! Layer 2
  {e9abac98-3671-4a32-a724-b4a42fd352ec}, ! Layer 3
  {69ecc4d0-720b-4220-8e9f-7d089df9d91e}; ! Layer 4

OS:Construction,
  {15b157b5-d81e-4149-9c67-a7f3d2463757}, ! Handle
  ASHRAE 189.1-2009 ExtWall Mass ClimateZone alt-res 8, ! Name
  {2f09c9b4-6d24-40c3-95ce-264ba98928dd}, ! Surface Rendering Name
  {9f2b333f-af74-4882-ac87-3448d3bdaea6}, ! Layer 1
  {3f93e0ac-ab69-45da-987e-415918b1ffde}, ! Layer 2
  {4a35c342-846b-4287-8b71-0b5dc3f147df}, ! Layer 3
  {69ecc4d0-720b-4220-8e9f-7d089df9d91e}; ! Layer 4

OS:Construction,
  {8ee7d3ce-65d0-4c0f-ac2e-43fb32a67faf}, ! Handle
  ASHRAE 189.1-2009 ExtWall Metal ClimateZone 1-3, ! Name
  {909548ce-19b4-4806-b2ca-43e9566314e6}, ! Surface Rendering Name
  {0ebaa661-4877-4752-bc49-8463aec0b8a8}, ! Layer 1
  {ad108a03-5ab8-4792-85f8-c7d27ee08e23}, ! Layer 2
  {69ecc4d0-720b-4220-8e9f-7d089df9d91e}; ! Layer 3

OS:Construction,
  {9c897fd7-b6f8-448f-b04c-0f9f039abb1d}, ! Handle
  ASHRAE 189.1-2009 ExtWall Metal ClimateZone 4-8, ! Name
  {3abb193a-6440-42ee-9b1c-189440b82cb3}, ! Surface Rendering Name
  {0ebaa661-4877-4752-bc49-8463aec0b8a8}, ! Layer 1
  {953481a5-ecf6-463d-a952-255a1776c3d0}, ! Layer 2
  {69ecc4d0-720b-4220-8e9f-7d089df9d91e}; ! Layer 3

OS:Construction,
  {c704344f-7bf2-42ee-b2c5-3e1061cbdf7a}, ! Handle
  ASHRAE 189.1-2009 ExtWall SteelFrame ClimateZone 1-3, ! Name
  {7a486de2-640d-4f5d-a95b-65e24afb9f0e}, ! Surface Rendering Name
  {de4fd6c5-ec88-4dfc-8a0e-799838ce523c}, ! Layer 1
  {9a861aec-b596-449f-8658-a4965678488c}, ! Layer 2
  {69ecc4d0-720b-4220-8e9f-7d089df9d91e}; ! Layer 3

OS:Construction,
  {0a719d3d-1fd8-4ad3-a899-b9ad9c362ae2}, ! Handle
  ASHRAE 189.1-2009 ExtWall SteelFrame ClimateZone 4-8, ! Name
  {29ed2edc-49e8-4704-a4b6-7e10c1f33a16}, ! Surface Rendering Name
  {de4fd6c5-ec88-4dfc-8a0e-799838ce523c}, ! Layer 1
  {997c3717-8ffc-41d5-af6a-3cadf19f4f0b}, ! Layer 2
  {69ecc4d0-720b-4220-8e9f-7d089df9d91e}; ! Layer 3

OS:Construction,
  {f33fdb94-36b6-482e-a237-8812a8e26ca9}, ! Handle
  ASHRAE 189.1-2009 ExtWall WoodFrame ClimateZone 1-4, ! Name
  {6b95b32c-e1e3-4530-8aed-cb5e7b6dbb07}, ! Surface Rendering Name
  {8e231004-20ff-4157-84e2-7859fa126e31}, ! Layer 1
  {bb6e7ae0-0321-413f-8cf9-e646898c6d3c}, ! Layer 2
  {69ecc4d0-720b-4220-8e9f-7d089df9d91e}; ! Layer 3

OS:Construction,
  {6646e06e-1c03-4d7a-be9b-d4af7582ee38}, ! Handle
  ASHRAE 189.1-2009 ExtWall WoodFrame ClimateZone 5, ! Name
  {3a0798e7-e30b-4996-b66c-e05c5589a3d6}, ! Surface Rendering Name
  {8e231004-20ff-4157-84e2-7859fa126e31}, ! Layer 1
  {57043fb0-98c8-418f-8681-da6f420a70f8}, ! Layer 2
  {69ecc4d0-720b-4220-8e9f-7d089df9d91e}; ! Layer 3

OS:Construction,
  {1401fe3b-c6b3-4e6a-9c95-de514506850d}, ! Handle
  ASHRAE 189.1-2009 ExtWall WoodFrame ClimateZone 6-8, ! Name
  {085b2f8e-12ad-4a20-8374-2a46f742ef64}, ! Surface Rendering Name
  {8e231004-20ff-4157-84e2-7859fa126e31}, ! Layer 1
  {dbc9a93d-050d-4db3-a9d2-cf30fa760024}, ! Layer 2
  {69ecc4d0-720b-4220-8e9f-7d089df9d91e}; ! Layer 3

OS:Construction,
  {8ba995b4-d147-4f15-8179-7862bf9908db}, ! Handle
  ASHRAE 189.1-2009 ExtWindow ClimateZone 1, ! Name
  {8cd5d5c3-894e-4810-98cd-852350e7fd50}, ! Surface Rendering Name
  {b44a67df-6d03-4400-87a0-f74afc4adddd}; ! Layer 1

OS:Construction,
  {0462c8c4-bb89-4ad0-8bd5-481627bbb2b8}, ! Handle
  ASHRAE 189.1-2009 ExtWindow ClimateZone 2, ! Name
  {c484071e-b03f-4823-9676-b6cdda4342c8}, ! Surface Rendering Name
  {9daa826d-f975-4fbe-85fe-b9ce6a11a398}; ! Layer 1

OS:Construction,
  {4962fdfc-7656-4d3d-93b3-476ed10368e9}, ! Handle
  ASHRAE 189.1-2009 ExtWindow ClimateZone 3, ! Name
  {56bf0e1d-43cb-4c2b-91b2-c237b8d1f126}, ! Surface Rendering Name
  {7c10f5e7-1b59-44ba-91b6-5e7f74c0549e}; ! Layer 1

OS:Construction,
  {9f26d210-2d4e-4faf-a1bc-4a171e6b35c2}, ! Handle
  ASHRAE 189.1-2009 ExtWindow ClimateZone 4-5, ! Name
  {5bd50a81-4387-409a-9b27-4db0d5daa410}, ! Surface Rendering Name
  {cdb9f8c7-ed7c-4b4a-b441-02b9ab63e954}; ! Layer 1

OS:Construction,
  {fd7d2077-37fa-4b7d-be6e-ebdea5f13ce9}, ! Handle
  ASHRAE 189.1-2009 ExtWindow ClimateZone 6, ! Name
  {f9da5360-9b8c-4df8-8a35-206ccd26604c}, ! Surface Rendering Name
  {3d1208fa-d212-4f1e-bcb0-2b256ab21b05}; ! Layer 1

OS:Construction,
  {47e17ea9-c2df-4166-990e-144ca24dca5f}, ! Handle
  ASHRAE 189.1-2009 ExtWindow ClimateZone 7-8, ! Name
  {e4946de6-8b91-430f-b027-c5772c6cda85}, ! Surface Rendering Name
  {a7e5e64b-57e1-4487-bcf1-7726c3d7af0a}; ! Layer 1

OS:Construction,
  {49acd97f-dc2b-488b-96e6-7c5c4907d11e}, ! Handle
  ASHRAE 189.1-2009 ExtWindow ClimateZone alt-res 4-5, ! Name
  {91197630-666f-4860-9da6-259b5f0c6b6e}, ! Surface Rendering Name
  {3d1208fa-d212-4f1e-bcb0-2b256ab21b05}; ! Layer 1

OS:Construction,
  {83ab427c-e92e-43c9-be7d-642ff25b8953}, ! Handle
  ASHRAE 90.1-2004 AtticFloor ClimateZone 1-5, ! Name
  {e0f93e68-0aec-43a9-8c74-ae3bb69cb164}, ! Surface Rendering Name
  {69ecc4d0-720b-4220-8e9f-7d089df9d91e}, ! Layer 1
  {39ea4327-118b-4fdd-b78d-58bfa6f0c6a0}, ! Layer 2
  {69ecc4d0-720b-4220-8e9f-7d089df9d91e}; ! Layer 3

OS:Construction,
  {7d8c775d-e6ce-4e34-a9cc-33bcfb9bb9cc}, ! Handle
  ASHRAE 90.1-2004 AtticFloor ClimateZone 6-8, ! Name
  {1e6a9b74-10ce-4879-894d-d2200c71590b}, ! Surface Rendering Name
  {69ecc4d0-720b-4220-8e9f-7d089df9d91e}, ! Layer 1
  {5cf8ceb5-a1ca-48c2-907f-0a64899b73af}, ! Layer 2
  {69ecc4d0-720b-4220-8e9f-7d089df9d91e}; ! Layer 3

OS:Construction,
  {f95c581e-cfac-470f-9211-b91a41e6a3cb}, ! Handle
  ASHRAE 90.1-2004 ExtRoof IEAD ClimateZone 1-4, ! Name
  {0507fda3-09ef-4593-9d76-a88c1e12ed0e}, ! Surface Rendering Name
  {889ca79a-97b1-4d11-9f75-64b36d5838bc}, ! Layer 1
  {dbc50ec9-066e-42d2-8cac-558ce19049a5}, ! Layer 2
  {cad72488-8d21-4897-ae5a-80d16dba802d}; ! Layer 3

OS:Construction,
  {2cc457d0-47cb-4d4d-a91c-6310f1a4848e}, ! Handle
  ASHRAE 90.1-2004 ExtRoof IEAD ClimateZone 5-6, ! Name
  {3691ea75-ded5-47a6-9730-5f3c21d90f74}, ! Surface Rendering Name
  {889ca79a-97b1-4d11-9f75-64b36d5838bc}, ! Layer 1
  {c4c59cbe-2469-4ba5-a6f9-0ddec7a2c223}, ! Layer 2
  {cad72488-8d21-4897-ae5a-80d16dba802d}; ! Layer 3

OS:Construction,
  {08428c46-315f-4c58-9b32-77735c994c6c}, ! Handle
  ASHRAE 90.1-2004 ExtRoof IEAD ClimateZone 7, ! Name
  {aae3f9ee-3181-4712-8a5e-5ea7a5ebc005}, ! Surface Rendering Name
  {889ca79a-97b1-4d11-9f75-64b36d5838bc}, ! Layer 1
  {dbc50ec9-066e-42d2-8cac-558ce19049a5}, ! Layer 2
  {cad72488-8d21-4897-ae5a-80d16dba802d}; ! Layer 3

OS:Construction,
  {4134d2ac-2b51-47f2-9876-9613a8f35c18}, ! Handle
  ASHRAE 90.1-2004 ExtRoof IEAD ClimateZone 8, ! Name
  {34c865d0-84a3-4ca7-89fe-a9f7948ab309}, ! Surface Rendering Name
  {889ca79a-97b1-4d11-9f75-64b36d5838bc}, ! Layer 1
  {550b83e1-333b-496c-acb4-c73e84fd35a7}, ! Layer 2
  {cad72488-8d21-4897-ae5a-80d16dba802d}; ! Layer 3

OS:Construction,
  {937e16b4-baa5-402f-ad96-dd3091109f63}, ! Handle
  ASHRAE 90.1-2004 ExtRoof Metal ClimateZone 1, ! Name
  {c5295859-1715-4a92-99d7-c8dd95ce928f}, ! Surface Rendering Name
  {1248ff14-1406-42f5-b280-9f74412eb918}; ! Layer 1

OS:Construction,
  {c8f21738-9878-488b-b1d3-7824855933c3}, ! Handle
  ASHRAE 90.1-2004 ExtRoof Metal ClimateZone 2, ! Name
  {d165a7d7-f02f-4a71-b018-a42d5964722b}, ! Surface Rendering Name
  {1248ff14-1406-42f5-b280-9f74412eb918}, ! Layer 1
  {7e605860-6e80-469d-b11d-b012af78f454}; ! Layer 2

OS:Construction,
  {79a13cac-c52a-4845-b630-8e0327dca943}, ! Handle
  ASHRAE 90.1-2004 ExtRoof Metal ClimateZone 3-4, ! Name
  {2fae0786-61d4-46b6-a9f8-584a000b3e6d}, ! Surface Rendering Name
  {1248ff14-1406-42f5-b280-9f74412eb918}, ! Layer 1
  {a1c30f26-7e66-4e42-ab62-3154f19e0786}; ! Layer 2

OS:Construction,
  {a44d671e-84ab-42b7-8ba1-bc0462b48466}, ! Handle
  ASHRAE 90.1-2004 ExtRoof Metal ClimateZone 5-6, ! Name
  {1aed17d8-89e8-4a57-9925-ac223db2d5b7}, ! Surface Rendering Name
  {1248ff14-1406-42f5-b280-9f74412eb918}, ! Layer 1
  {f20edf86-c526-46e4-90a0-cf0c653c768a}; ! Layer 2

OS:Construction,
  {dcb997ad-554c-438e-8fc3-8a6f3f4e1fb8}, ! Handle
  ASHRAE 90.1-2004 ExtRoof Metal ClimateZone 7, ! Name
  {32f20e13-c32a-4e74-bcba-9aea4eb52deb}, ! Surface Rendering Name
  {1248ff14-1406-42f5-b280-9f74412eb918}, ! Layer 1
  {a1c30f26-7e66-4e42-ab62-3154f19e0786}; ! Layer 2

OS:Construction,
  {a8b81fe8-c832-46c9-a6aa-a3194e78c4d5}, ! Handle
  ASHRAE 90.1-2004 ExtRoof Metal ClimateZone 8, ! Name
  {86b2a2af-296a-4434-bbe3-15b8273030c8}, ! Surface Rendering Name
  {1248ff14-1406-42f5-b280-9f74412eb918}, ! Layer 1
  {adb65152-3f64-47e7-a80b-00f87a875989}; ! Layer 2

OS:Construction,
  {51839188-1dbb-4438-963b-d44b2659c04b}, ! Handle
  ASHRAE 90.1-2004 ExtWall Mass ClimateZone 1-2, ! Name
  {fc0089f4-cbc4-4f8e-b178-dc0750881571}, ! Surface Rendering Name
  {9f2b333f-af74-4882-ac87-3448d3bdaea6}, ! Layer 1
  {2f0a241b-546a-4c1a-b16e-dd53fb3ab896}, ! Layer 2
  {69ecc4d0-720b-4220-8e9f-7d089df9d91e}; ! Layer 3

OS:Construction,
  {0d034daa-3d8a-4345-9126-269e6dee59c2}, ! Handle
  ASHRAE 90.1-2004 ExtWall Mass ClimateZone 3-4, ! Name
  {ea4dcba9-a373-4c5e-b04b-ce4864c961cc}, ! Surface Rendering Name
  {9f2b333f-af74-4882-ac87-3448d3bdaea6}, ! Layer 1
  {2f0a241b-546a-4c1a-b16e-dd53fb3ab896}, ! Layer 2
  {e4a40fb9-8f07-4b60-9e1f-25889267eb19}, ! Layer 3
  {69ecc4d0-720b-4220-8e9f-7d089df9d91e}; ! Layer 4

OS:Construction,
  {ee8b81c6-c912-44c8-8386-581a28a9a367}, ! Handle
  ASHRAE 90.1-2004 ExtWall Mass ClimateZone 5, ! Name
  {402d904b-e9aa-4803-b850-9f37a7ddd0a6}, ! Surface Rendering Name
  {9f2b333f-af74-4882-ac87-3448d3bdaea6}, ! Layer 1
  {2f0a241b-546a-4c1a-b16e-dd53fb3ab896}, ! Layer 2
  {dcff9720-841b-42a8-b35b-9bce779631b0}, ! Layer 3
  {69ecc4d0-720b-4220-8e9f-7d089df9d91e}; ! Layer 4

OS:Construction,
  {fc8fafaf-f796-4bb3-9526-6f1d6e670320}, ! Handle
  ASHRAE 90.1-2004 ExtWall Mass ClimateZone 6, ! Name
  {35b412ba-dc29-4d95-b982-8cf72625cc97}, ! Surface Rendering Name
  {9f2b333f-af74-4882-ac87-3448d3bdaea6}, ! Layer 1
  {2f0a241b-546a-4c1a-b16e-dd53fb3ab896}, ! Layer 2
  {db1fdb5a-3b53-4c9f-8cbe-af13d0bb752a}, ! Layer 3
  {69ecc4d0-720b-4220-8e9f-7d089df9d91e}; ! Layer 4

OS:Construction,
  {e55b02c9-30dd-4a85-839c-68f33ce69a4e}, ! Handle
  ASHRAE 90.1-2004 ExtWall Mass ClimateZone 7, ! Name
  {b7ae1e9b-39d8-4c11-a729-a0a91080fe83}, ! Surface Rendering Name
  {9f2b333f-af74-4882-ac87-3448d3bdaea6}, ! Layer 1
  {2f0a241b-546a-4c1a-b16e-dd53fb3ab896}, ! Layer 2
  {5f720ef5-2ca2-4df5-93b2-481ab23bd8b0}, ! Layer 3
  {69ecc4d0-720b-4220-8e9f-7d089df9d91e}; ! Layer 4

OS:Construction,
  {93839999-5621-4795-b264-e6d4a62e473d}, ! Handle
  ASHRAE 90.1-2004 ExtWall Mass ClimateZone 8, ! Name
  {3e487fb9-7818-4faa-8ab4-9c2ea1af5388}, ! Surface Rendering Name
  {9f2b333f-af74-4882-ac87-3448d3bdaea6}, ! Layer 1
  {2f0a241b-546a-4c1a-b16e-dd53fb3ab896}, ! Layer 2
  {42868702-2411-486f-baf7-5c6adab0ae9a}, ! Layer 3
  {69ecc4d0-720b-4220-8e9f-7d089df9d91e}; ! Layer 4

OS:Construction,
  {aa9c38f0-8e47-4c46-9716-6e463a1895c6}, ! Handle
  ASHRAE 90.1-2004 ExtWall Mass ClimateZone alt-res 1-2, ! Name
  {08ab8e15-d73d-4100-bb15-a8d3b298d8b3}, ! Surface Rendering Name
  {9f2b333f-af74-4882-ac87-3448d3bdaea6}, ! Layer 1
  {2f0a241b-546a-4c1a-b16e-dd53fb3ab896}, ! Layer 2
  {e4a40fb9-8f07-4b60-9e1f-25889267eb19}, ! Layer 3
  {69ecc4d0-720b-4220-8e9f-7d089df9d91e}; ! Layer 4

OS:Construction,
  {01e3895b-6253-4d06-9f99-88989e42e8b5}, ! Handle
  ASHRAE 90.1-2004 ExtWall Mass ClimateZone alt-res 3, ! Name
  {191b1a4d-acd5-4b7b-a9d9-52396cc6f16e}, ! Surface Rendering Name
  {9f2b333f-af74-4882-ac87-3448d3bdaea6}, ! Layer 1
  {2f0a241b-546a-4c1a-b16e-dd53fb3ab896}, ! Layer 2
  {dcff9720-841b-42a8-b35b-9bce779631b0}, ! Layer 3
  {69ecc4d0-720b-4220-8e9f-7d089df9d91e}; ! Layer 4

OS:Construction,
  {15be58db-5431-4a20-bd66-f70f6583b697}, ! Handle
  ASHRAE 90.1-2004 ExtWall Mass ClimateZone alt-res 4, ! Name
  {dde8c288-6e7b-43cf-bac8-29a5fc2d8a2c}, ! Surface Rendering Name
  {9f2b333f-af74-4882-ac87-3448d3bdaea6}, ! Layer 1
  {2f0a241b-546a-4c1a-b16e-dd53fb3ab896}, ! Layer 2
  {db1fdb5a-3b53-4c9f-8cbe-af13d0bb752a}, ! Layer 3
  {69ecc4d0-720b-4220-8e9f-7d089df9d91e}; ! Layer 4

OS:Construction,
  {3549e972-fc6a-472d-b360-6f1bf65b0eae}, ! Handle
  ASHRAE 90.1-2004 ExtWall Mass ClimateZone alt-res 5-6, ! Name
  {5fe9f6da-c09d-43cb-b14f-b61a7a188f75}, ! Surface Rendering Name
  {9f2b333f-af74-4882-ac87-3448d3bdaea6}, ! Layer 1
  {2f0a241b-546a-4c1a-b16e-dd53fb3ab896}, ! Layer 2
  {5f720ef5-2ca2-4df5-93b2-481ab23bd8b0}, ! Layer 3
  {69ecc4d0-720b-4220-8e9f-7d089df9d91e}; ! Layer 4

OS:Construction,
  {bc2eaa24-43aa-46b9-b88d-34015f0b289f}, ! Handle
  ASHRAE 90.1-2004 ExtWall Mass ClimateZone alt-res 7, ! Name
  {eec23351-a513-4400-bf29-9ee72413a1a0}, ! Surface Rendering Name
  {9f2b333f-af74-4882-ac87-3448d3bdaea6}, ! Layer 1
  {2f0a241b-546a-4c1a-b16e-dd53fb3ab896}, ! Layer 2
  {42868702-2411-486f-baf7-5c6adab0ae9a}, ! Layer 3
  {69ecc4d0-720b-4220-8e9f-7d089df9d91e}; ! Layer 4

OS:Construction,
  {46b54dbf-91b0-4f52-aac9-ede9ffec85be}, ! Handle
  ASHRAE 90.1-2004 ExtWall Mass ClimateZone alt-res 8, ! Name
  {bb23e81f-8359-42a3-b903-ada191ba9882}, ! Surface Rendering Name
  {9f2b333f-af74-4882-ac87-3448d3bdaea6}, ! Layer 1
  {2f0a241b-546a-4c1a-b16e-dd53fb3ab896}, ! Layer 2
  {2b792380-8c40-4d61-9e92-942f99a443b9}, ! Layer 3
  {69ecc4d0-720b-4220-8e9f-7d089df9d91e}; ! Layer 4

OS:Construction,
  {d3162bcd-c915-4640-bcab-2891b9007f64}, ! Handle
  ASHRAE 90.1-2004 ExtWall Metal ClimateZone 1, ! Name
  {f3e5ff4d-c173-4fd3-b94f-a05fc74ca09d}, ! Surface Rendering Name
  {0ebaa661-4877-4752-bc49-8463aec0b8a8}, ! Layer 1
  {69ecc4d0-720b-4220-8e9f-7d089df9d91e}; ! Layer 2

OS:Construction,
  {e3d5b8f3-937a-43c8-9132-dada450d9250}, ! Handle
  ASHRAE 90.1-2004 ExtWall Metal ClimateZone 2-3, ! Name
  {b2d8b3a8-d1f6-4b4e-b173-673ff18703fc}, ! Surface Rendering Name
  {0ebaa661-4877-4752-bc49-8463aec0b8a8}, ! Layer 1
  {f2461a05-2ace-4c17-bba5-018403f3d284}, ! Layer 2
  {69ecc4d0-720b-4220-8e9f-7d089df9d91e}; ! Layer 3

OS:Construction,
  {3b8480e1-4f22-45dc-a731-f6478596be95}, ! Handle
  ASHRAE 90.1-2004 ExtWall Metal ClimateZone 4, ! Name
  {5f63cd83-1564-4f82-9981-a964fdf1a111}, ! Surface Rendering Name
  {0ebaa661-4877-4752-bc49-8463aec0b8a8}, ! Layer 1
  {1dfb3ce8-0954-428f-ae02-25379f07172a}, ! Layer 2
  {69ecc4d0-720b-4220-8e9f-7d089df9d91e}; ! Layer 3

OS:Construction,
  {73a75e67-6474-4a4a-b14f-89a5a677395a}, ! Handle
  ASHRAE 90.1-2004 ExtWall Metal ClimateZone 5, ! Name
  {b55a945f-572f-4a4c-9410-1304b3666803}, ! Surface Rendering Name
  {0ebaa661-4877-4752-bc49-8463aec0b8a8}, ! Layer 1
  {03e1ae1f-a5bf-4057-abc4-9e8705787c1b}, ! Layer 2
  {69ecc4d0-720b-4220-8e9f-7d089df9d91e}; ! Layer 3

OS:Construction,
  {4e3b728f-f3e2-49da-9089-b4615d5d381c}, ! Handle
  ASHRAE 90.1-2004 ExtWall Metal ClimateZone 6-8, ! Name
  {c285fba0-c49c-4a74-b016-574820d41b06}, ! Surface Rendering Name