
OS:Version,
  {91102fb4-2f68-48d8-b3bd-6600640da973}, !- Handle
  2.3.0;                                  !- Version Identifier

OS:Construction,
  {c6b06505-8785-4954-af30-8635a92ed386}, !- Handle
  ASHRAE 189.1-2009 AtticFloor ClimateZone 1-8, !- Name
  ,                                       !- Surface Rendering Name
  {846e3b94-a5ae-47cc-b5df-1ea3d7292a77}, !- Layer 1
  {c9dd1190-5c1a-45f0-8089-510956f8d0b3}, !- Layer 2
  {846e3b94-a5ae-47cc-b5df-1ea3d7292a77}; !- Layer 3

OS:StandardsInformation:Construction,
  {047d0290-95e4-478a-8a66-4895fabec2ed}, !- Handle
  {c6b06505-8785-4954-af30-8635a92ed386}, !- Construction Name
  AtticFloor,                             !- Intended Surface Type
  WoodFramed,                             !- Standards Construction Type
  ,                                       !- Perturbable Layer
  ,                                       !- Perturbable Layer Type
  ,                                       !- Other Perturbable Layer Type
  ASHRAE 189.1-2009;                      !- Construction Standard

OS:Material,
  {846e3b94-a5ae-47cc-b5df-1ea3d7292a77}, !- Handle
  1/2IN Gypsum,                           !- Name
  Smooth,                                 !- Roughness
  0.0127,                                 !- Thickness {m}
  0.16,                                   !- Conductivity {W/m-K}
  784.9,                                  !- Density {kg/m3}
  830.000000000001,                       !- Specific Heat {J/kg-K}
  0.9,                                    !- Thermal Absorptance
  0.4,                                    !- Solar Absorptance
  0.4;                                    !- Visible Absorptance

OS:StandardsInformation:Material,
  {666ca985-b614-4271-8918-2e3736c860c9}, !- Handle
  {846e3b94-a5ae-47cc-b5df-1ea3d7292a77}; !- Material Name

OS:Material,
  {c9dd1190-5c1a-45f0-8089-510956f8d0b3}, !- Handle
  AtticFloor Insulation,                  !- Name
  MediumRough,                            !- Roughness
  0.2379,                                 !- Thickness {m}
  0.049,                                  !- Conductivity {W/m-K}
  265,                                    !- Density {kg/m3}
  836.800000000001,                       !- Specific Heat {J/kg-K}
  0.9,                                    !- Thermal Absorptance
  0.7,                                    !- Solar Absorptance
  0.7;                                    !- Visible Absorptance

OS:StandardsInformation:Material,
  {999fd4bc-d93f-46f9-9879-2e2d9c0cd9f0}, !- Handle
  {c9dd1190-5c1a-45f0-8089-510956f8d0b3}; !- Material Name

OS:Construction,
  {e5707474-8e69-4bf4-b226-58e4dad55211}, !- Handle
  ASHRAE 189.1-2009 ExtRoof IEAD ClimateZone 1, !- Name
  ,                                       !- Surface Rendering Name
  {329e6af4-6911-44d6-95e3-2e9a60dfa10c}, !- Layer 1
  {e5cbcc02-01a5-4da7-b190-f7fcc62818f9}, !- Layer 2
  {be327d4e-9c91-442f-b8e6-6d82f6547cbe}; !- Layer 3

OS:StandardsInformation:Construction,
  {b15d4dc4-e93b-4b92-8e1c-cfa3895754fc}, !- Handle
  {e5707474-8e69-4bf4-b226-58e4dad55211}, !- Construction Name
  ExteriorRoof,                           !- Intended Surface Type
  IEAD,                                   !- Standards Construction Type
  ,                                       !- Perturbable Layer
  ,                                       !- Perturbable Layer Type
  ,                                       !- Other Perturbable Layer Type
  ASHRAE 189.1-2009;                      !- Construction Standard

OS:Material,
  {329e6af4-6911-44d6-95e3-2e9a60dfa10c}, !- Handle
  Roof Membrane,                          !- Name
  VeryRough,                              !- Roughness
  0.0095,                                 !- Thickness {m}
  0.16,                                   !- Conductivity {W/m-K}
  1121.29,                                !- Density {kg/m3}
  1460,                                   !- Specific Heat {J/kg-K}
  0.9,                                    !- Thermal Absorptance
  0.7,                                    !- Solar Absorptance
  0.7;                                    !- Visible Absorptance

OS:StandardsInformation:Material,
  {ebd39279-ec46-4438-b69e-cb4a933d4b22}, !- Handle
  {329e6af4-6911-44d6-95e3-2e9a60dfa10c}; !- Material Name

OS:Material,
  {e5cbcc02-01a5-4da7-b190-f7fcc62818f9}, !- Handle
  Roof Insulation [18],                   !- Name
  MediumRough,                            !- Roughness
  0.1693,                                 !- Thickness {m}
  0.049,                                  !- Conductivity {W/m-K}
  265,                                    !- Density {kg/m3}
  836.800000000001,                       !- Specific Heat {J/kg-K}
  0.9,                                    !- Thermal Absorptance
  0.7,                                    !- Solar Absorptance
  0.7;                                    !- Visible Absorptance

OS:StandardsInformation:Material,
  {95dfc63b-15a8-478e-8c39-5b84b768daaf}, !- Handle
  {e5cbcc02-01a5-4da7-b190-f7fcc62818f9}; !- Material Name

OS:Material,
  {be327d4e-9c91-442f-b8e6-6d82f6547cbe}, !- Handle
  Metal Decking,                          !- Name
  MediumSmooth,                           !- Roughness
  0.0015,                                 !- Thickness {m}
  45.006,                                 !- Conductivity {W/m-K}
  7680,                                   !- Density {kg/m3}
  418.4,                                  !- Specific Heat {J/kg-K}
  0.9,                                    !- Thermal Absorptance
  0.6,                                    !- Solar Absorptance
  0.6;                                    !- Visible Absorptance

OS:StandardsInformation:Material,
  {2fdda7cc-9820-4af2-a664-97b6c7257f41}, !- Handle
  {be327d4e-9c91-442f-b8e6-6d82f6547cbe}; !- Material Name

OS:Construction,
  {20a09419-e1c3-4a68-b7ba-cbd087e8b1f2}, !- Handle
  ASHRAE 189.1-2009 ExtRoof IEAD ClimateZone 2-5, !- Name
  ,                                       !- Surface Rendering Name
  {329e6af4-6911-44d6-95e3-2e9a60dfa10c}, !- Layer 1
  {7ccad464-0685-4d5d-bb39-459ba8694ca8}, !- Layer 2
  {be327d4e-9c91-442f-b8e6-6d82f6547cbe}; !- Layer 3

OS:StandardsInformation:Construction,
  {50b8a5a1-c5a0-4c5a-826d-bd46f805fd17}, !- Handle
  {20a09419-e1c3-4a68-b7ba-cbd087e8b1f2}, !- Construction Name
  ExteriorRoof,                           !- Intended Surface Type
  IEAD,                                   !- Standards Construction Type
  ,                                       !- Perturbable Layer
  ,                                       !- Perturbable Layer Type
  ,                                       !- Other Perturbable Layer Type
  ASHRAE 189.1-2009;                      !- Construction Standard

OS:Material,
  {7ccad464-0685-4d5d-bb39-459ba8694ca8}, !- Handle
  Roof Insulation [21],                   !- Name
  MediumRough,                            !- Roughness
  0.2105,                                 !- Thickness {m}
  0.049,                                  !- Conductivity {W/m-K}
  265,                                    !- Density {kg/m3}
  836.800000000001,                       !- Specific Heat {J/kg-K}
  0.9,                                    !- Thermal Absorptance
  0.7,                                    !- Solar Absorptance
  0.7;                                    !- Visible Absorptance

OS:StandardsInformation:Material,
  {2f6ad112-8374-41b8-9e16-353fdffcdd7d}, !- Handle
  {7ccad464-0685-4d5d-bb39-459ba8694ca8}; !- Material Name

OS:Construction,
  {b4a18f5a-5f1f-4418-b8e8-6b92108ae5b8}, !- Handle
  ASHRAE 189.1-2009 ExtRoof IEAD ClimateZone 6, !- Name
  ,                                       !- Surface Rendering Name
  {329e6af4-6911-44d6-95e3-2e9a60dfa10c}, !- Layer 1
  {b14102db-535d-4154-991b-f04637fdab79}, !- Layer 2
  {be327d4e-9c91-442f-b8e6-6d82f6547cbe}; !- Layer 3

OS:StandardsInformation:Construction,
  {42063ab1-2081-4c21-99ab-2fdb4a7bbe45}, !- Handle
  {b4a18f5a-5f1f-4418-b8e8-6b92108ae5b8}, !- Construction Name
  ExteriorRoof,                           !- Intended Surface Type
  IEAD,                                   !- Standards Construction Type
  ,                                       !- Perturbable Layer
  ,                                       !- Perturbable Layer Type
  ,                                       !- Other Perturbable Layer Type
  ASHRAE 189.1-2009;                      !- Construction Standard

OS:Material,
  {b14102db-535d-4154-991b-f04637fdab79}, !- Handle
  Roof Insulation [24],                   !- Name
  MediumRough,                            !- Roughness
  0.260100000000001,                      !- Thickness {m}
  0.049,                                  !- Conductivity {W/m-K}
  265,                                    !- Density {kg/m3}
  836.800000000001,                       !- Specific Heat {J/kg-K}
  0.9,                                    !- Thermal Absorptance
  0.7,                                    !- Solar Absorptance
  0.7;                                    !- Visible Absorptance

OS:StandardsInformation:Material,
  {26b618ae-0653-449f-8142-cb63b9e6c8b0}, !- Handle
  {b14102db-535d-4154-991b-f04637fdab79}; !- Material Name

OS:Construction,
  {1c2618a9-313b-4db7-917c-7ce4e890fdf7}, !- Handle
  ASHRAE 189.1-2009 ExtRoof IEAD ClimateZone 7-8, !- Name
  ,                                       !- Surface Rendering Name
  {329e6af4-6911-44d6-95e3-2e9a60dfa10c}, !- Layer 1
  {dc7b6ff5-4306-42b3-9919-d4d0d97dfed5}, !- Layer 2
  {be327d4e-9c91-442f-b8e6-6d82f6547cbe}; !- Layer 3

OS:StandardsInformation:Construction,
  {ab5ae286-f802-4fa1-b916-de9436ef5c8e}, !- Handle
  {1c2618a9-313b-4db7-917c-7ce4e890fdf7}, !- Construction Name
  ExteriorRoof,                           !- Intended Surface Type
  IEAD,                                   !- Standards Construction Type
  ,                                       !- Perturbable Layer
  ,                                       !- Perturbable Layer Type
  ,                                       !- Other Perturbable Layer Type
  ASHRAE 189.1-2009;                      !- Construction Standard

OS:Material,
  {dc7b6ff5-4306-42b3-9919-d4d0d97dfed5}, !- Handle
  Roof Insulation [26],                   !- Name
  MediumRough,                            !- Roughness
  0.2941,                                 !- Thickness {m}
  0.049,                                  !- Conductivity {W/m-K}
  265,                                    !- Density {kg/m3}
  836.800000000001,                       !- Specific Heat {J/kg-K}
  0.9,                                    !- Thermal Absorptance
  0.7,                                    !- Solar Absorptance
  0.7;                                    !- Visible Absorptance

OS:StandardsInformation:Material,
  {b11b4960-3a58-4695-aa05-480a491e914c}, !- Handle
  {dc7b6ff5-4306-42b3-9919-d4d0d97dfed5}; !- Material Name

OS:Construction,
  {eb76147d-29a7-4332-812f-640763cafea0}, !- Handle
  ASHRAE 189.1-2009 ExtRoof Metal ClimateZone 1, !- Name
  ,                                       !- Surface Rendering Name
  {2583e90d-bb1a-4664-8e26-f589b4a5ce1c}, !- Layer 1
  {7639cbf1-dc5b-4059-95a6-da0bcfdc4489}, !- Layer 2
  {be327d4e-9c91-442f-b8e6-6d82f6547cbe}; !- Layer 3

OS:StandardsInformation:Construction,
  {470198a0-b7fe-4c86-8b3a-a9aa7575d719}, !- Handle
  {eb76147d-29a7-4332-812f-640763cafea0}, !- Construction Name
  ExteriorRoof,                           !- Intended Surface Type
  Metal,                                  !- Standards Construction Type
  ,                                       !- Perturbable Layer
  ,                                       !- Perturbable Layer Type
  ,                                       !- Other Perturbable Layer Type
  ASHRAE 189.1-2009;                      !- Construction Standard

OS:Material,
  {2583e90d-bb1a-4664-8e26-f589b4a5ce1c}, !- Handle
  Metal Roofing,                          !- Name
  MediumSmooth,                           !- Roughness
  0.0015,                                 !- Thickness {m}
  45.006,                                 !- Conductivity {W/m-K}
  7680,                                   !- Density {kg/m3}
  418.4,                                  !- Specific Heat {J/kg-K}
  0.9,                                    !- Thermal Absorptance
  0.6,                                    !- Solar Absorptance
  0.6;                                    !- Visible Absorptance

OS:StandardsInformation:Material,
  {7851f9c0-194a-4772-94db-02b59e55cbcf}, !- Handle
  {2583e90d-bb1a-4664-8e26-f589b4a5ce1c}; !- Material Name

OS:Material,
  {7639cbf1-dc5b-4059-95a6-da0bcfdc4489}, !- Handle
  Roof Insulation [19],                   !- Name
  MediumRough,                            !- Roughness
  0.1868,                                 !- Thickness {m}
  0.049,                                  !- Conductivity {W/m-K}
  265,                                    !- Density {kg/m3}
  836.800000000001,                       !- Specific Heat {J/kg-K}
  0.9,                                    !- Thermal Absorptance
  0.7,                                    !- Solar Absorptance
  0.7;                                    !- Visible Absorptance

OS:StandardsInformation:Material,
  {58c6e23b-8f30-4bc9-a06c-260dd0ddfd1b}, !- Handle
  {7639cbf1-dc5b-4059-95a6-da0bcfdc4489}; !- Material Name

OS:Construction,
  {4aedb86c-b9e7-400e-99a4-a4044fc983ee}, !- Handle
  ASHRAE 189.1-2009 ExtRoof Metal ClimateZone 2-5, !- Name
  ,                                       !- Surface Rendering Name
  {2583e90d-bb1a-4664-8e26-f589b4a5ce1c}, !- Layer 1
  {f79a5457-e27d-476a-8eb4-398d049ec52e}, !- Layer 2
  {be327d4e-9c91-442f-b8e6-6d82f6547cbe}; !- Layer 3

OS:StandardsInformation:Construction,
  {9a9632d8-c6de-4f8a-8ff2-f247b5c9fd60}, !- Handle
  {4aedb86c-b9e7-400e-99a4-a4044fc983ee}, !- Construction Name
  ExteriorRoof,                           !- Intended Surface Type
  Metal,                                  !- Standards Construction Type
  ,                                       !- Perturbable Layer
  ,                                       !- Perturbable Layer Type
  ,                                       !- Other Perturbable Layer Type
  ASHRAE 189.1-2009;                      !- Construction Standard

OS:Material,
  {f79a5457-e27d-476a-8eb4-398d049ec52e}, !- Handle
  Roof Insulation [22],                   !- Name
  MediumRough,                            !- Roughness
  0.2358,                                 !- Thickness {m}
  0.049,                                  !- Conductivity {W/m-K}
  265,                                    !- Density {kg/m3}
  836.800000000001,                       !- Specific Heat {J/kg-K}
  0.9,                                    !- Thermal Absorptance
  0.7,                                    !- Solar Absorptance
  0.7;                                    !- Visible Absorptance

OS:StandardsInformation:Material,
  {1f04f1f1-cd4d-4afb-9866-ab8b354fc60b}, !- Handle
  {f79a5457-e27d-476a-8eb4-398d049ec52e}; !- Material Name

OS:Construction,
  {8683251b-c2d0-4666-904f-adc075442b67}, !- Handle
  ASHRAE 189.1-2009 ExtRoof Metal ClimateZone 6, !- Name
  ,                                       !- Surface Rendering Name
  {2583e90d-bb1a-4664-8e26-f589b4a5ce1c}, !- Layer 1
  {f067fa68-6dd1-4563-ad60-89e8a64ffa81}, !- Layer 2
  {be327d4e-9c91-442f-b8e6-6d82f6547cbe}; !- Layer 3

OS:StandardsInformation:Construction,
  {258998d4-66e7-42a8-978a-b7a3c9d392f5}, !- Handle
  {8683251b-c2d0-4666-904f-adc075442b67}, !- Construction Name
  ExteriorRoof,                           !- Intended Surface Type
  Metal,                                  !- Standards Construction Type
  ,                                       !- Perturbable Layer
  ,                                       !- Perturbable Layer Type
  ,                                       !- Other Perturbable Layer Type
  ASHRAE 189.1-2009;                      !- Construction Standard

OS:Material,
  {f067fa68-6dd1-4563-ad60-89e8a64ffa81}, !- Handle
  Roof Insulation [25],                   !- Name
  MediumRough,                            !- Roughness
  0.263,                                  !- Thickness {m}
  0.049,                                  !- Conductivity {W/m-K}
  265,                                    !- Density {kg/m3}
  836.800000000001,                       !- Specific Heat {J/kg-K}
  0.9,                                    !- Thermal Absorptance
  0.7,                                    !- Solar Absorptance
  0.7;                                    !- Visible Absorptance

OS:StandardsInformation:Material,
  {332a33b6-a1b8-4df4-9f50-22f2c8097557}, !- Handle
  {f067fa68-6dd1-4563-ad60-89e8a64ffa81}; !- Material Name

OS:Construction,
  {97e51f6f-4c1f-4974-9111-9f35c3ffe335}, !- Handle
  ASHRAE 189.1-2009 ExtRoof Metal ClimateZone 7-8, !- Name
  ,                                       !- Surface Rendering Name
  {2583e90d-bb1a-4664-8e26-f589b4a5ce1c}, !- Layer 1
  {bb0629f9-e3dd-41ea-8b81-ecf83a32f03f}, !- Layer 2
  {be327d4e-9c91-442f-b8e6-6d82f6547cbe}; !- Layer 3

OS:StandardsInformation:Construction,
  {63071ff0-46a0-488d-9067-c075a2b748b1}, !- Handle
  {97e51f6f-4c1f-4974-9111-9f35c3ffe335}, !- Construction Name
  ExteriorRoof,                           !- Intended Surface Type
  Metal,                                  !- Standards Construction Type
  ,                                       !- Perturbable Layer
  ,                                       !- Perturbable Layer Type
  ,                                       !- Other Perturbable Layer Type
  ASHRAE 189.1-2009;                      !- Construction Standard

OS:Material,
  {bb0629f9-e3dd-41ea-8b81-ecf83a32f03f}, !- Handle
  Roof Insulation [27],                   !- Name
  MediumRough,                            !- Roughness
  0.297000000000001,                      !- Thickness {m}
  0.049,                                  !- Conductivity {W/m-K}
  265,                                    !- Density {kg/m3}
  836.800000000001,                       !- Specific Heat {J/kg-K}
  0.9,                                    !- Thermal Absorptance
  0.7,                                    !- Solar Absorptance
  0.7;                                    !- Visible Absorptance

OS:StandardsInformation:Material,
  {4ff47640-ad33-47d5-b693-933c67448a60}, !- Handle
  {bb0629f9-e3dd-41ea-8b81-ecf83a32f03f}; !- Material Name

OS:Construction,
  {f720e7f3-c6ea-40eb-bb97-3607c4f0af03}, !- Handle
  ASHRAE 189.1-2009 ExtWall Mass ClimateZone 1, !- Name
  ,                                       !- Surface Rendering Name
  {ebdb0f24-4e1c-4f7d-a430-efc80a2071ef}, !- Layer 1
  {525b4da2-d5aa-4a08-9197-58ef565d91cc}, !- Layer 2
  {b901178b-41b6-4a7a-987c-7e2238f7be0b}, !- Layer 3
  {846e3b94-a5ae-47cc-b5df-1ea3d7292a77}; !- Layer 4

OS:StandardsInformation:Construction,
  {c0ae7129-d168-410a-a062-19b40d1de3f8}, !- Handle
  {f720e7f3-c6ea-40eb-bb97-3607c4f0af03}, !- Construction Name
  ExteriorWall,                           !- Intended Surface Type
  Mass,                                   !- Standards Construction Type
  ,                                       !- Perturbable Layer
  ,                                       !- Perturbable Layer Type
  ,                                       !- Other Perturbable Layer Type
  ASHRAE 189.1-2009;                      !- Construction Standard

OS:Material,
  {ebdb0f24-4e1c-4f7d-a430-efc80a2071ef}, !- Handle
  1IN Stucco,                             !- Name
  Smooth,                                 !- Roughness
  0.0253,                                 !- Thickness {m}
  0.691799999999999,                      !- Conductivity {W/m-K}
  1858,                                   !- Density {kg/m3}
  836.999999999999,                       !- Specific Heat {J/kg-K}
  0.9,                                    !- Thermal Absorptance
  0.92,                                   !- Solar Absorptance
  0.92;                                   !- Visible Absorptance

OS:StandardsInformation:Material,
  {f2b79a94-d107-4f31-9565-9a85140213ae}, !- Handle
  {ebdb0f24-4e1c-4f7d-a430-efc80a2071ef}; !- Material Name

OS:Material,
  {525b4da2-d5aa-4a08-9197-58ef565d91cc}, !- Handle
  8IN Concrete HW,                        !- Name
  MediumRough,                            !- Roughness
  0.2033,                                 !- Thickness {m}
  1.72959999999999,                       !- Conductivity {W/m-K}
  2242.99999999999,                       !- Density {kg/m3}
  836.999999999999,                       !- Specific Heat {J/kg-K}
  0.9,                                    !- Thermal Absorptance
  0.65,                                   !- Solar Absorptance
  0.65;                                   !- Visible Absorptance

OS:StandardsInformation:Material,
  {c14b53db-9cd0-444e-b064-c3bbccb343c3}, !- Handle
  {525b4da2-d5aa-4a08-9197-58ef565d91cc}; !- Material Name

OS:Material,
  {b901178b-41b6-4a7a-987c-7e2238f7be0b}, !- Handle
  Wall Insulation [31],                   !- Name
  MediumRough,                            !- Roughness
  0.0337000000000001,                     !- Thickness {m}
  0.0432,                                 !- Conductivity {W/m-K}
  91,                                     !- Density {kg/m3}
  836.999999999999,                       !- Specific Heat {J/kg-K}
  0.9,                                    !- Thermal Absorptance
  0.5,                                    !- Solar Absorptance
  0.5;                                    !- Visible Absorptance

OS:StandardsInformation:Material,
  {049f410f-788f-4568-ac56-9d6f14247e7a}, !- Handle
  {b901178b-41b6-4a7a-987c-7e2238f7be0b}; !- Material Name

OS:Construction,
  {ffdd7738-5f32-4b75-8e00-d4720499782a}, !- Handle
  ASHRAE 189.1-2009 ExtWall Mass ClimateZone 2, !- Name
  ,                                       !- Surface Rendering Name
  {ebdb0f24-4e1c-4f7d-a430-efc80a2071ef}, !- Layer 1
  {525b4da2-d5aa-4a08-9197-58ef565d91cc}, !- Layer 2
  {d7f714ba-66db-44b7-8c22-f0c7e5638472}, !- Layer 3
  {846e3b94-a5ae-47cc-b5df-1ea3d7292a77}; !- Layer 4

OS:StandardsInformation:Construction,
  {ca25373a-acfa-44b6-9f6d-9264485955af}, !- Handle
  {ffdd7738-5f32-4b75-8e00-d4720499782a}, !- Construction Name
  ExteriorWall,                           !- Intended Surface Type
  Mass,                                   !- Standards Construction Type
  ,                                       !- Perturbable Layer
  ,                                       !- Perturbable Layer Type
  ,                                       !- Other Perturbable Layer Type
  ASHRAE 189.1-2009;                      !- Construction Standard

OS:Material,
  {d7f714ba-66db-44b7-8c22-f0c7e5638472}, !- Handle
  Wall Insulation [35],                   !- Name
  MediumRough,                            !- Roughness
  0.0452,                                 !- Thickness {m}
  0.0432,                                 !- Conductivity {W/m-K}
  91,                                     !- Density {kg/m3}
  836.999999999999,                       !- Specific Heat {J/kg-K}
  0.9,                                    !- Thermal Absorptance
  0.5,                                    !- Solar Absorptance
  0.5;                                    !- Visible Absorptance

OS:StandardsInformation:Material,
  {d2cf1d5f-215a-4e23-a9c9-55996486ef53}, !- Handle
  {d7f714ba-66db-44b7-8c22-f0c7e5638472}; !- Material Name

OS:Construction,
  {72760ab2-edaf-44ce-b21a-697a0666527b}, !- Handle
  ASHRAE 189.1-2009 ExtWall Mass ClimateZone 3, !- Name
  ,                                       !- Surface Rendering Name
  {ebdb0f24-4e1c-4f7d-a430-efc80a2071ef}, !- Layer 1
  {525b4da2-d5aa-4a08-9197-58ef565d91cc}, !- Layer 2
  {fa0317bf-11ae-48c6-97e1-67bdc562b0dd}, !- Layer 3
  {846e3b94-a5ae-47cc-b5df-1ea3d7292a77}; !- Layer 4

OS:StandardsInformation:Construction,
  {84ca1654-8e44-42a7-9ad3-b235d6b453b7}, !- Handle
  {72760ab2-edaf-44ce-b21a-697a0666527b}, !- Construction Name
  ExteriorWall,                           !- Intended Surface Type
  Mass,                                   !- Standards Construction Type
  ,                                       !- Perturbable Layer
  ,                                       !- Perturbable Layer Type
  ,                                       !- Other Perturbable Layer Type
  ASHRAE 189.1-2009;                      !- Construction Standard

OS:Material,
  {fa0317bf-11ae-48c6-97e1-67bdc562b0dd}, !- Handle
  Wall Insulation [36],                   !- Name
  MediumRough,                            !- Roughness
  0.0565999999999999,                     !- Thickness {m}
  0.0432,                                 !- Conductivity {W/m-K}
  91,                                     !- Density {kg/m3}
  836.999999999999,                       !- Specific Heat {J/kg-K}
  0.9,                                    !- Thermal Absorptance
  0.5,                                    !- Solar Absorptance
  0.5;                                    !- Visible Absorptance

OS:StandardsInformation:Material,
  {8bd23201-2a04-475d-ba8c-9ffdc1133776}, !- Handle
  {fa0317bf-11ae-48c6-97e1-67bdc562b0dd}; !- Material Name

OS:Construction,
  {1c504da0-9cd4-4394-a163-1819fd195ae1}, !- Handle
  ASHRAE 189.1-2009 ExtWall Mass ClimateZone 4, !- Name
  ,                                       !- Surface Rendering Name
  {ebdb0f24-4e1c-4f7d-a430-efc80a2071ef}, !- Layer 1
  {525b4da2-d5aa-4a08-9197-58ef565d91cc}, !- Layer 2
  {462445f7-d5c1-4596-aa47-6e8f5e0b35cf}, !- Layer 3
  {846e3b94-a5ae-47cc-b5df-1ea3d7292a77}; !- Layer 4

OS:StandardsInformation:Construction,
  {f4a5c84f-d8db-4026-9083-2763b164f496}, !- Handle
  {1c504da0-9cd4-4394-a163-1819fd195ae1}, !- Construction Name
  ExteriorWall,                           !- Intended Surface Type
  Mass,                                   !- Standards Construction Type
  ,                                       !- Perturbable Layer
  ,                                       !- Perturbable Layer Type
  ,                                       !- Other Perturbable Layer Type
  ASHRAE 189.1-2009;                      !- Construction Standard

OS:Material,
  {462445f7-d5c1-4596-aa47-6e8f5e0b35cf}, !- Handle
  Wall Insulation [37],                   !- Name
  MediumRough,                            !- Roughness
  0.0680999999999999,                     !- Thickness {m}
  0.0432,                                 !- Conductivity {W/m-K}
  91,                                     !- Density {kg/m3}
  836.999999999999,                       !- Specific Heat {J/kg-K}
  0.9,                                    !- Thermal Absorptance
  0.5,                                    !- Solar Absorptance
  0.5;                                    !- Visible Absorptance

OS:StandardsInformation:Material,
  {175429ae-0502-4093-96d0-7944810b0ee3}, !- Handle
  {462445f7-d5c1-4596-aa47-6e8f5e0b35cf}; !- Material Name

OS:Construction,
  {a5147912-6cf8-481b-a569-d04531a69b3d}, !- Handle
  ASHRAE 189.1-2009 ExtWall Mass ClimateZone 5, !- Name
  ,                                       !- Surface Rendering Name
  {ebdb0f24-4e1c-4f7d-a430-efc80a2071ef}, !- Layer 1
  {525b4da2-d5aa-4a08-9197-58ef565d91cc}, !- Layer 2
  {5b070a53-ecc0-4b64-89ec-1c1655edbba5}, !- Layer 3
  {846e3b94-a5ae-47cc-b5df-1ea3d7292a77}; !- Layer 4

OS:StandardsInformation:Construction,
  {ec5f8d48-0da8-48b3-9eca-2c1a72632278}, !- Handle
  {a5147912-6cf8-481b-a569-d04531a69b3d}, !- Construction Name
  ExteriorWall,                           !- Intended Surface Type
  Mass,                                   !- Standards Construction Type
  ,                                       !- Perturbable Layer
  ,                                       !- Perturbable Layer Type
  ,                                       !- Other Perturbable Layer Type
  ASHRAE 189.1-2009;                      !- Construction Standard

OS:Material,
  {5b070a53-ecc0-4b64-89ec-1c1655edbba5}, !- Handle
  Wall Insulation [40],                   !- Name
  MediumRough,                            !- Roughness
  0.0793999999999999,                     !- Thickness {m}
  0.0432,                                 !- Conductivity {W/m-K}
  91,                                     !- Density {kg/m3}
  836.999999999999,                       !- Specific Heat {J/kg-K}
  0.9,                                    !- Thermal Absorptance
  0.5,                                    !- Solar Absorptance
  0.5;                                    !- Visible Absorptance

OS:StandardsInformation:Material,
  {1a3c707f-bdc5-4a10-92da-a729e74fde22}, !- Handle
  {5b070a53-ecc0-4b64-89ec-1c1655edbba5}; !- Material Name

OS:Construction,
  {de23a71b-d75a-454a-82d9-b88edf5bfabf}, !- Handle
  ASHRAE 189.1-2009 ExtWall Mass ClimateZone 6, !- Name
  ,                                       !- Surface Rendering Name
  {ebdb0f24-4e1c-4f7d-a430-efc80a2071ef}, !- Layer 1
  {525b4da2-d5aa-4a08-9197-58ef565d91cc}, !- Layer 2
  {7798eb88-e782-4ca0-bb47-350635837ea0}, !- Layer 3
  {846e3b94-a5ae-47cc-b5df-1ea3d7292a77}; !- Layer 4

OS:StandardsInformation:Construction,
  {5d7af237-f19b-4a44-b824-64fa4f4d5392}, !- Handle
  {de23a71b-d75a-454a-82d9-b88edf5bfabf}, !- Construction Name
  ExteriorWall,                           !- Intended Surface Type
  Mass,                                   !- Standards Construction Type
  ,                                       !- Perturbable Layer
  ,                                       !- Perturbable Layer Type
  ,                                       !- Other Perturbable Layer Type
  ASHRAE 189.1-2009;                      !- Construction Standard

OS:Material,
  {7798eb88-e782-4ca0-bb47-350635837ea0}, !- Handle
  Wall Insulation [42],                   !- Name
  MediumRough,                            !- Roughness
  0.0913999999999999,                     !- Thickness {m}
  0.0432,                                 !- Conductivity {W/m-K}
  91,                                     !- Density {kg/m3}
  836.999999999999,                       !- Specific Heat {J/kg-K}