
OS:Version,
  {57859f83-b14d-4817-a74f-640cfcaa253a}, !- Handle
  1.2.3;                                  !- Version Identifier

OS:Construction,
  {dddcf141-2e23-44d7-8b6c-d40e6117c567}, !- Handle
  ASHRAE 189.1-2009 AtticFloor ClimateZone 1-8, !- Name
  ,                                       !- Surface Rendering Name
  {5b7e5821-89f8-45aa-9ea0-ee4a38c4be47}, !- Layer 1
  {5e22a06e-aa97-4250-9421-313f11d0c32f}, !- Layer 2
  {5b7e5821-89f8-45aa-9ea0-ee4a38c4be47}; !- Layer 3

OS:StandardsInformation:Construction,
  {99eba9b9-7b60-4d68-bfb9-356f3a84dd2a}, !- Handle
  {dddcf141-2e23-44d7-8b6c-d40e6117c567}, !- Construction Name
  AtticFloor,                             !- Intended Surface Type
  WoodFramed;                             !- Standards Construction Type

OS:Material,
  {5b7e5821-89f8-45aa-9ea0-ee4a38c4be47}, !- Handle
  1/2IN Gypsum,                           !- Name
  Smooth,                                 !- Roughness
  0.0127,                                 !- Thickness {m}
  0.16,                                   !- Conductivity {W/m-K}
  784.9,                                  !- Density {kg/m3}
  830.000000000001,                       !- Specific Heat {J/kg-K}
  0.9,                                    !- Thermal Absorptance
  0.92,                                   !- Solar Absorptance
  0.92;                                   !- Visible Absorptance

OS:Material,
  {5e22a06e-aa97-4250-9421-313f11d0c32f}, !- Handle
  AtticFloor Insulation,                  !- Name
  MediumRough,                            !- Roughness
  0.2379,                                 !- Thickness {m}
  0.049,                                  !- Conductivity {W/m-K}
  265,                                    !- Density {kg/m3}
  836.800000000001,                       !- Specific Heat {J/kg-K}
  0.9,                                    !- Thermal Absorptance
  0.7,                                    !- Solar Absorptance
  0.7;                                    !- Visible Absorptance

OS:Construction,
  {d2fbecfd-b1a7-4c61-8c9a-0c8559286002}, !- Handle
  ASHRAE 189.1-2009 ExtRoof IEAD ClimateZone 1, !- Name
  ,                                       !- Surface Rendering Name
  {8bd448da-b035-465d-a33e-6e18de2f0f44}, !- Layer 1
  {e9c5b5eb-1a0f-447f-82dd-dc778e275aab}, !- Layer 2
  {7180f24b-2b72-4d49-a5c8-8d329b8c34d4}; !- Layer 3

OS:StandardsInformation:Construction,
  {1c0303f6-9e53-44f0-a9ab-deef5ff7062c}, !- Handle
  {d2fbecfd-b1a7-4c61-8c9a-0c8559286002}, !- Construction Name
  ExteriorRoof,                           !- Intended Surface Type
  IEAD;                                   !- Standards Construction Type

OS:Material,
  {8bd448da-b035-465d-a33e-6e18de2f0f44}, !- Handle
  Roof Membrane,                          !- Name
  VeryRough,                              !- Roughness
  0.0095,                                 !- Thickness {m}
  0.16,                                   !- Conductivity {W/m-K}
  1121.29,                                !- Density {kg/m3}
  1460,                                   !- Specific Heat {J/kg-K}
  0.9,                                    !- Thermal Absorptance
  0.7,                                    !- Solar Absorptance
  0.7;                                    !- Visible Absorptance

OS:Material,
  {e9c5b5eb-1a0f-447f-82dd-dc778e275aab}, !- Handle
  Roof Insulation [18],                   !- Name
  MediumRough,                            !- Roughness
  0.1693,                                 !- Thickness {m}
  0.049,                                  !- Conductivity {W/m-K}
  265,                                    !- Density {kg/m3}
  836.800000000001,                       !- Specific Heat {J/kg-K}
  0.9,                                    !- Thermal Absorptance
  0.7,                                    !- Solar Absorptance
  0.7;                                    !- Visible Absorptance

OS:Material,
  {7180f24b-2b72-4d49-a5c8-8d329b8c34d4}, !- Handle
  Metal Decking,                          !- Name
  MediumSmooth,                           !- Roughness
  0.0015,                                 !- Thickness {m}
  45.006,                                 !- Conductivity {W/m-K}
  7680,                                   !- Density {kg/m3}
  418.4,                                  !- Specific Heat {J/kg-K}
  0.9,                                    !- Thermal Absorptance
  0.7,                                    !- Solar Absorptance
  0.3;                                    !- Visible Absorptance

OS:Construction,
  {28249ecc-14f5-497b-ad02-4307563bd85b}, !- Handle
  ASHRAE 189.1-2009 ExtRoof IEAD ClimateZone 2-5, !- Name
  ,                                       !- Surface Rendering Name
  {8bd448da-b035-465d-a33e-6e18de2f0f44}, !- Layer 1
  {1fc2ffde-3025-4821-a2cc-40d091dff668}, !- Layer 2
  {7180f24b-2b72-4d49-a5c8-8d329b8c34d4}; !- Layer 3

OS:StandardsInformation:Construction,
  {f00fb954-84e2-4221-b3d2-3a4ee24aec1f}, !- Handle
  {28249ecc-14f5-497b-ad02-4307563bd85b}, !- Construction Name
  ExteriorRoof,                           !- Intended Surface Type
  IEAD;                                   !- Standards Construction Type

OS:Material,
  {1fc2ffde-3025-4821-a2cc-40d091dff668}, !- Handle
  Roof Insulation [21],                   !- Name
  MediumRough,                            !- Roughness
  0.2105,                                 !- Thickness {m}
  0.049,                                  !- Conductivity {W/m-K}
  265,                                    !- Density {kg/m3}
  836.800000000001,                       !- Specific Heat {J/kg-K}
  0.9,                                    !- Thermal Absorptance
  0.7,                                    !- Solar Absorptance
  0.7;                                    !- Visible Absorptance

OS:Construction,
  {3a97a4b3-cdb7-432e-b6ea-e76ae81d1511}, !- Handle
  ASHRAE 189.1-2009 ExtRoof IEAD ClimateZone 6, !- Name
  ,                                       !- Surface Rendering Name
  {8bd448da-b035-465d-a33e-6e18de2f0f44}, !- Layer 1
  {05e049f8-b18d-427d-acd7-153fb63ce70d}, !- Layer 2
  {7180f24b-2b72-4d49-a5c8-8d329b8c34d4}; !- Layer 3

OS:StandardsInformation:Construction,
  {22796cb3-ecfa-4aef-ba27-79130d4ed4f4}, !- Handle
  {3a97a4b3-cdb7-432e-b6ea-e76ae81d1511}, !- Construction Name
  ExteriorRoof,                           !- Intended Surface Type
  IEAD;                                   !- Standards Construction Type

OS:Material,
  {05e049f8-b18d-427d-acd7-153fb63ce70d}, !- Handle
  Roof Insulation [24],                   !- Name
  MediumRough,                            !- Roughness
  0.260100000000001,                      !- Thickness {m}
  0.049,                                  !- Conductivity {W/m-K}
  265,                                    !- Density {kg/m3}
  836.800000000001,                       !- Specific Heat {J/kg-K}
  0.9,                                    !- Thermal Absorptance
  0.7,                                    !- Solar Absorptance
  0.7;                                    !- Visible Absorptance

OS:Construction,
  {e5e58c80-fa24-4c30-a47a-2e5ac7096c0c}, !- Handle
  ASHRAE 189.1-2009 ExtRoof IEAD ClimateZone 7-8, !- Name
  ,                                       !- Surface Rendering Name
  {8bd448da-b035-465d-a33e-6e18de2f0f44}, !- Layer 1
  {f2fae079-e3f9-4463-adb9-e9db8c2239b7}, !- Layer 2
  {7180f24b-2b72-4d49-a5c8-8d329b8c34d4}; !- Layer 3

OS:StandardsInformation:Construction,
  {2ebe9182-90e0-4757-99a7-60f94ccb8a54}, !- Handle
  {e5e58c80-fa24-4c30-a47a-2e5ac7096c0c}, !- Construction Name
  ExteriorRoof,                           !- Intended Surface Type
  IEAD;                                   !- Standards Construction Type

OS:Material,
  {f2fae079-e3f9-4463-adb9-e9db8c2239b7}, !- Handle
  Roof Insulation [26],                   !- Name
  MediumRough,                            !- Roughness
  0.2941,                                 !- Thickness {m}
  0.049,                                  !- Conductivity {W/m-K}
  265,                                    !- Density {kg/m3}
  836.800000000001,                       !- Specific Heat {J/kg-K}
  0.9,                                    !- Thermal Absorptance
  0.7,                                    !- Solar Absorptance
  0.7;                                    !- Visible Absorptance

OS:Construction,
  {84a2b94e-63db-4b0e-b3b9-fafd9f6e017c}, !- Handle
  ASHRAE 189.1-2009 ExtRoof Metal ClimateZone 1, !- Name
  ,                                       !- Surface Rendering Name
  {5b2a2a20-2b36-49f7-9495-72b29f462566}, !- Layer 1
  {14f0b144-666c-4b4a-8c25-406cc23fb13c}; !- Layer 2

OS:StandardsInformation:Construction,
  {8c14616b-8787-45f4-821c-318c19b2409d}, !- Handle
  {84a2b94e-63db-4b0e-b3b9-fafd9f6e017c}, !- Construction Name
  ExteriorRoof,                           !- Intended Surface Type
  Metal;                                  !- Standards Construction Type

OS:Material,
  {5b2a2a20-2b36-49f7-9495-72b29f462566}, !- Handle
  Metal Roofing,                          !- Name
  MediumSmooth,                           !- Roughness
  0.0015,                                 !- Thickness {m}
  45.006,                                 !- Conductivity {W/m-K}
  7680,                                   !- Density {kg/m3}
  418.4,                                  !- Specific Heat {J/kg-K}
  0.9,                                    !- Thermal Absorptance
  0.3,                                    !- Solar Absorptance
  0.3;                                    !- Visible Absorptance

OS:Material,
  {14f0b144-666c-4b4a-8c25-406cc23fb13c}, !- Handle
  Roof Insulation [19],                   !- Name
  MediumRough,                            !- Roughness
  0.1868,                                 !- Thickness {m}
  0.049,                                  !- Conductivity {W/m-K}
  265,                                    !- Density {kg/m3}
  836.800000000001,                       !- Specific Heat {J/kg-K}
  0.9,                                    !- Thermal Absorptance
  0.7,                                    !- Solar Absorptance
  0.7;                                    !- Visible Absorptance

OS:Construction,
  {cdd0eb73-437f-4a9e-be80-7e08c9c0fe60}, !- Handle
  ASHRAE 189.1-2009 ExtRoof Metal ClimateZone 2-5, !- Name
  ,                                       !- Surface Rendering Name
  {5b2a2a20-2b36-49f7-9495-72b29f462566}, !- Layer 1
  {ec5119ae-6c13-4b7a-a35a-d1b2eb56a11a}; !- Layer 2

OS:StandardsInformation:Construction,
  {c04eafe9-2a86-46ff-8592-c93b209b01a6}, !- Handle
  {cdd0eb73-437f-4a9e-be80-7e08c9c0fe60}, !- Construction Name
  ExteriorRoof,                           !- Intended Surface Type
  Metal;                                  !- Standards Construction Type

OS:Material,
  {ec5119ae-6c13-4b7a-a35a-d1b2eb56a11a}, !- Handle
  Roof Insulation [22],                   !- Name
  MediumRough,                            !- Roughness
  0.2358,                                 !- Thickness {m}
  0.049,                                  !- Conductivity {W/m-K}
  265,                                    !- Density {kg/m3}
  836.800000000001,                       !- Specific Heat {J/kg-K}
  0.9,                                    !- Thermal Absorptance
  0.7,                                    !- Solar Absorptance
  0.7;                                    !- Visible Absorptance

OS:Construction,
  {5535f47e-00ab-4a9a-b606-f958191867b7}, !- Handle
  ASHRAE 189.1-2009 ExtRoof Metal ClimateZone 6, !- Name
  ,                                       !- Surface Rendering Name
  {5b2a2a20-2b36-49f7-9495-72b29f462566}, !- Layer 1
  {86abc66e-af5d-4455-abfa-f3b956d15866}; !- Layer 2

OS:StandardsInformation:Construction,
  {29c14ab4-e959-4bd1-afcd-49fbd03a045f}, !- Handle
  {5535f47e-00ab-4a9a-b606-f958191867b7}, !- Construction Name
  ExteriorRoof,                           !- Intended Surface Type
  Metal;                                  !- Standards Construction Type

OS:Material,
  {86abc66e-af5d-4455-abfa-f3b956d15866}, !- Handle
  Roof Insulation [25],                   !- Name
  MediumRough,                            !- Roughness
  0.263,                                  !- Thickness {m}
  0.049,                                  !- Conductivity {W/m-K}
  265,                                    !- Density {kg/m3}
  836.800000000001,                       !- Specific Heat {J/kg-K}
  0.9,                                    !- Thermal Absorptance
  0.7,                                    !- Solar Absorptance
  0.7;                                    !- Visible Absorptance

OS:Construction,
  {25d29a9d-6da1-4340-9785-5e796717b1fa}, !- Handle
  ASHRAE 189.1-2009 ExtRoof Metal ClimateZone 7-8, !- Name
  ,                                       !- Surface Rendering Name
  {5b2a2a20-2b36-49f7-9495-72b29f462566}, !- Layer 1
  {ad858199-d8a0-478a-aa22-5309df6a49ec}; !- Layer 2

OS:StandardsInformation:Construction,
  {2278062f-a219-4579-9bb0-247b1da79feb}, !- Handle
  {25d29a9d-6da1-4340-9785-5e796717b1fa}, !- Construction Name
  ExteriorRoof,                           !- Intended Surface Type
  Metal;                                  !- Standards Construction Type

OS:Material,
  {ad858199-d8a0-478a-aa22-5309df6a49ec}, !- Handle
  Roof Insulation [27],                   !- Name
  MediumRough,                            !- Roughness
  0.297000000000001,                      !- Thickness {m}
  0.049,                                  !- Conductivity {W/m-K}
  265,                                    !- Density {kg/m3}
  836.800000000001,                       !- Specific Heat {J/kg-K}
  0.9,                                    !- Thermal Absorptance
  0.7,                                    !- Solar Absorptance
  0.7;                                    !- Visible Absorptance

OS:Construction,
  {458fcce0-c51b-44e3-9dc6-f8d3ded6eeb3}, !- Handle
  ASHRAE 189.1-2009 ExtWall Mass ClimateZone 1, !- Name
  ,                                       !- Surface Rendering Name
  {a0568cb1-fb79-4d6d-abee-6274077b4514}, !- Layer 1
  {c8776643-c05e-49fb-9af8-1bcc423fef16}, !- Layer 2
  {309cec41-2f96-423a-82be-831e62818534}, !- Layer 3
  {5b7e5821-89f8-45aa-9ea0-ee4a38c4be47}; !- Layer 4

OS:StandardsInformation:Construction,
  {7bd83f26-d740-4d73-8beb-319d1e970e33}, !- Handle
  {458fcce0-c51b-44e3-9dc6-f8d3ded6eeb3}, !- Construction Name
  ExteriorWall,                           !- Intended Surface Type
  Mass;                                   !- Standards Construction Type

OS:Material,
  {a0568cb1-fb79-4d6d-abee-6274077b4514}, !- Handle
  1IN Stucco,                             !- Name
  Smooth,                                 !- Roughness
  0.0253,                                 !- Thickness {m}
  0.691799999999999,                      !- Conductivity {W/m-K}
  1858,                                   !- Density {kg/m3}
  836.999999999999,                       !- Specific Heat {J/kg-K}
  0.9,                                    !- Thermal Absorptance
  0.92,                                   !- Solar Absorptance
  0.92;                                   !- Visible Absorptance

OS:Material,
  {c8776643-c05e-49fb-9af8-1bcc423fef16}, !- Handle
  8IN Concrete HW,                        !- Name
  MediumRough,                            !- Roughness
  0.2033,                                 !- Thickness {m}
  1.72959999999999,                       !- Conductivity {W/m-K}
  2242.99999999999,                       !- Density {kg/m3}
  836.999999999999,                       !- Specific Heat {J/kg-K}
  0.9,                                    !- Thermal Absorptance
  0.65,                                   !- Solar Absorptance
  0.65;                                   !- Visible Absorptance

OS:Material,
  {309cec41-2f96-423a-82be-831e62818534}, !- Handle
  Wall Insulation [31],                   !- Name
  MediumRough,                            !- Roughness
  0.0337000000000001,                     !- Thickness {m}
  0.0432,                                 !- Conductivity {W/m-K}
  91,                                     !- Density {kg/m3}
  836.999999999999,                       !- Specific Heat {J/kg-K}
  0.9,                                    !- Thermal Absorptance
  0.5,                                    !- Solar Absorptance
  0.5;                                    !- Visible Absorptance

OS:Construction,
  {9777ec1e-f0e4-4e61-9a11-c2dcea30dfdf}, !- Handle
  ASHRAE 189.1-2009 ExtWall Mass ClimateZone 2, !- Name
  ,                                       !- Surface Rendering Name
  {a0568cb1-fb79-4d6d-abee-6274077b4514}, !- Layer 1
  {c8776643-c05e-49fb-9af8-1bcc423fef16}, !- Layer 2
  {c0a02dcb-c9df-4207-ae57-3ec72299c2e1}, !- Layer 3
  {5b7e5821-89f8-45aa-9ea0-ee4a38c4be47}; !- Layer 4

OS:StandardsInformation:Construction,
  {9ddf0f47-da56-4374-8161-0857e54cb8b5}, !- Handle
  {9777ec1e-f0e4-4e61-9a11-c2dcea30dfdf}, !- Construction Name
  ExteriorWall,                           !- Intended Surface Type
  Mass;                                   !- Standards Construction Type

OS:Material,
  {c0a02dcb-c9df-4207-ae57-3ec72299c2e1}, !- Handle
  Wall Insulation [35],                   !- Name
  MediumRough,                            !- Roughness
  0.0452,                                 !- Thickness {m}
  0.0432,                                 !- Conductivity {W/m-K}
  91,                                     !- Density {kg/m3}
  836.999999999999,                       !- Specific Heat {J/kg-K}
  0.9,                                    !- Thermal Absorptance
  0.5,                                    !- Solar Absorptance
  0.5;                                    !- Visible Absorptance

OS:Construction,
  {8b23b7e3-3063-47a8-943f-7a09171164a7}, !- Handle
  ASHRAE 189.1-2009 ExtWall Mass ClimateZone 3, !- Name
  ,                                       !- Surface Rendering Name
  {a0568cb1-fb79-4d6d-abee-6274077b4514}, !- Layer 1
  {c8776643-c05e-49fb-9af8-1bcc423fef16}, !- Layer 2
  {a5170595-2232-4397-8908-9f8a5abc66df}, !- Layer 3
  {5b7e5821-89f8-45aa-9ea0-ee4a38c4be47}; !- Layer 4

OS:StandardsInformation:Construction,
  {d5688dc8-12c1-4331-9767-0d11915bf2de}, !- Handle
  {8b23b7e3-3063-47a8-943f-7a09171164a7}, !- Construction Name
  ExteriorWall,                           !- Intended Surface Type
  Mass;                                   !- Standards Construction Type

OS:Material,
  {a5170595-2232-4397-8908-9f8a5abc66df}, !- Handle
  Wall Insulation [36],                   !- Name
  MediumRough,                            !- Roughness
  0.0565999999999999,                     !- Thickness {m}
  0.0432,                                 !- Conductivity {W/m-K}
  91,                                     !- Density {kg/m3}
  836.999999999999,                       !- Specific Heat {J/kg-K}
  0.9,                                    !- Thermal Absorptance
  0.5,                                    !- Solar Absorptance
  0.5;                                    !- Visible Absorptance

OS:Construction,
  {e37d7a44-3bb4-4b5d-bf12-f51a52dc7538}, !- Handle
  ASHRAE 189.1-2009 ExtWall Mass ClimateZone 4, !- Name
  ,                                       !- Surface Rendering Name
  {a0568cb1-fb79-4d6d-abee-6274077b4514}, !- Layer 1
  {c8776643-c05e-49fb-9af8-1bcc423fef16}, !- Layer 2
  {bfc10263-0375-4476-8916-54dbf3281340}, !- Layer 3
  {5b7e5821-89f8-45aa-9ea0-ee4a38c4be47}; !- Layer 4

OS:StandardsInformation:Construction,
  {37fbb878-64b6-4ef6-8abf-343a5bd059c1}, !- Handle
  {e37d7a44-3bb4-4b5d-bf12-f51a52dc7538}, !- Construction Name
  ExteriorWall,                           !- Intended Surface Type
  Mass;                                   !- Standards Construction Type

OS:Material,
  {bfc10263-0375-4476-8916-54dbf3281340}, !- Handle
  Wall Insulation [37],                   !- Name
  MediumRough,                            !- Roughness
  0.0680999999999999,                     !- Thickness {m}
  0.0432,                                 !- Conductivity {W/m-K}
  91,                                     !- Density {kg/m3}
  836.999999999999,                       !- Specific Heat {J/kg-K}
  0.9,                                    !- Thermal Absorptance
  0.5,                                    !- Solar Absorptance
  0.5;                                    !- Visible Absorptance

OS:Construction,
  {afb48588-f1a0-4db7-b171-4d0878846b0c}, !- Handle
  ASHRAE 189.1-2009 ExtWall Mass ClimateZone 5, !- Name
  ,                                       !- Surface Rendering Name
  {a0568cb1-fb79-4d6d-abee-6274077b4514}, !- Layer 1
  {c8776643-c05e-49fb-9af8-1bcc423fef16}, !- Layer 2
  {c66ff93a-c0e4-4a43-b5f4-3a61d93f6bd0}, !- Layer 3
  {5b7e5821-89f8-45aa-9ea0-ee4a38c4be47}; !- Layer 4

OS:StandardsInformation:Construction,
  {70d79be1-c236-484b-a752-76c8d42946c6}, !- Handle
  {afb48588-f1a0-4db7-b171-4d0878846b0c}, !- Construction Name
  ExteriorWall,                           !- Intended Surface Type
  Mass;                                   !- Standards Construction Type

OS:Material,
  {c66ff93a-c0e4-4a43-b5f4-3a61d93f6bd0}, !- Handle
  Wall Insulation [40],                   !- Name
  MediumRough,                            !- Roughness
  0.0793999999999999,                     !- Thickness {m}
  0.0432,                                 !- Conductivity {W/m-K}
  91,                                     !- Density {kg/m3}
  836.999999999999,                       !- Specific Heat {J/kg-K}
  0.9,                                    !- Thermal Absorptance
  0.5,                                    !- Solar Absorptance
  0.5;                                    !- Visible Absorptance

OS:Construction,
  {94ca6401-1bc9-453e-bbd7-204678fbc270}, !- Handle
  ASHRAE 189.1-2009 ExtWall Mass ClimateZone 6, !- Name
  ,                                       !- Surface Rendering Name
  {a0568cb1-fb79-4d6d-abee-6274077b4514}, !- Layer 1
  {c8776643-c05e-49fb-9af8-1bcc423fef16}, !- Layer 2
  {6a32d407-2240-4885-99be-0143bed33168}, !- Layer 3
  {5b7e5821-89f8-45aa-9ea0-ee4a38c4be47}; !- Layer 4

OS:StandardsInformation:Construction,
  {19864318-f10e-4758-b26d-4c74e0e7592e}, !- Handle
  {94ca6401-1bc9-453e-bbd7-204678fbc270}, !- Construction Name
  ExteriorWall,                           !- Intended Surface Type
  Mass;                                   !- Standards Construction Type

OS:Material,
  {6a32d407-2240-4885-99be-0143bed33168}, !- Handle
  Wall Insulation [42],                   !- Name
  MediumRough,                            !- Roughness
  0.0913999999999999,                     !- Thickness {m}
  0.0432,                                 !- Conductivity {W/m-K}
  91,                                     !- Density {kg/m3}
  836.999999999999,                       !- Specific Heat {J/kg-K}
  0.9,                                    !- Thermal Absorptance
  0.5,                                    !- Solar Absorptance
  0.5;                                    !- Visible Absorptance

OS:Construction,
  {90f9ce75-e380-4e03-90bd-a13970d88703}, !- Handle
  ASHRAE 189.1-2009 ExtWall Mass ClimateZone 7-8, !- Name
  ,                                       !- Surface Rendering Name
  {a0568cb1-fb79-4d6d-abee-6274077b4514}, !- Layer 1
  {c8776643-c05e-49fb-9af8-1bcc423fef16}, !- Layer 2
  {181c5fcd-ba2c-4330-93a7-19d9935c4171}, !- Layer 3
  {5b7e5821-89f8-45aa-9ea0-ee4a38c4be47}; !- Layer 4

OS:StandardsInformation:Construction,
  {4646f108-dc31-41c5-aa48-b17608b864c9}, !- Handle
  {90f9ce75-e380-4e03-90bd-a13970d88703}, !- Construction Name
  ExteriorWall,                           !- Intended Surface Type
  Mass;                                   !- Standards Construction Type

OS:Material,
  {181c5fcd-ba2c-4330-93a7-19d9935c4171}, !- Handle
  Wall Insulation [44],                   !- Name
  MediumRough,                            !- Roughness
  0.1104,                                 !- Thickness {m}
  0.0432,                                 !- Conductivity {W/m-K}
  91,                                     !- Density {kg/m3}
  836.999999999999,                       !- Specific Heat {J/kg-K}
  0.9,                                    !- Thermal Absorptance
  0.5,                                    !- Solar Absorptance
  0.5;                                    !- Visible Absorptance

OS:Construction,
  {486ea180-3005-49d7-a65f-a2aaff93f12e}, !- Handle
  ASHRAE 189.1-2009 ExtWall Mass ClimateZone alt-res 1, !- Name
  ,                                       !- Surface Rendering Name
  {a0568cb1-fb79-4d6d-abee-6274077b4514}, !- Layer 1
  {c8776643-c05e-49fb-9af8-1bcc423fef16}, !- Layer 2
  {c0a02dcb-c9df-4207-ae57-3ec72299c2e1}, !- Layer 3
  {5b7e5821-89f8-45aa-9ea0-ee4a38c4be47}; !- Layer 4

OS:StandardsInformation:Construction,
  {ad0f8e91-7de9-48e8-9385-4ae627236601}, !- Handle
  {486ea180-3005-49d7-a65f-a2aaff93f12e}, !- Construction Name
  ExteriorWall,                           !- Intended Surface Type
  Mass;                                   !- Standards Construction Type

OS:Construction,
  {583759b4-7511-4ca9-8732-ea54214010b1}, !- Handle
  ASHRAE 189.1-2009 ExtWall Mass ClimateZone alt-res 2, !- Name
  ,                                       !- Surface Rendering Name
  {a0568cb1-fb79-4d6d-abee-6274077b4514}, !- Layer 1
  {c8776643-c05e-49fb-9af8-1bcc423fef16}, !- Layer 2
  {a5170595-2232-4397-8908-9f8a5abc66df}, !- Layer 3
  {5b7e5821-89f8-45aa-9ea0-ee4a38c4be47}; !- Layer 4

OS:StandardsInformation:Construction,
  {09f48a63-45c3-438f-88e2-6fd0570b5b7d}, !- Handle
  {583759b4-7511-4ca9-8732-ea54214010b1}, !- Construction Name
  ExteriorWall,                           !- Intended Surface Type
  Mass;                                   !- Standards Construction Type

OS:Construction,
  {8efe3601-7043-4c92-918a-aeedc7b824a7}, !- Handle
  ASHRAE 189.1-2009 ExtWall Mass ClimateZone alt-res 3, !- Name
  ,                                       !- Surface Rendering Name
  {a0568cb1-fb79-4d6d-abee-6274077b4514}, !- Layer 1
  {c8776643-c05e-49fb-9af8-1bcc423fef16}, !- Layer 2
  {bfc10263-0375-4476-8916-54dbf3281340}, !- Layer 3
  {5b7e5821-89f8-45aa-9ea0-ee4a38c4be47}; !- Layer 4

OS:StandardsInformation:Construction,
  {12871313-382d-4bb5-aac7-cd0777163818}, !- Handle
  {8efe3601-7043-4c92-918a-aeedc7b824a7}, !- Construction Name
  ExteriorWall,                           !- Intended Surface Type
  Mass;                                   !- Standards Construction Type

OS:Construction,
  {87641f19-351a-4bf4-95d1-ed14ee239573}, !- Handle
  ASHRAE 189.1-2009 ExtWall Mass ClimateZone alt-res 4, !- Name
  ,                                       !- Surface Rendering Name
  {a0568cb1-fb79-4d6d-abee-6274077b4514}, !- Layer 1
  {c8776643-c05e-49fb-9af8-1bcc423fef16}, !- Layer 2
  {c66ff93a-c0e4-4a43-b5f4-3a61d93f6bd0}, !- Layer 3
  {5b7e5821-89f8-45aa-9ea0-ee4a38c4be47}; !- Layer 4

OS:StandardsInformation:Construction,
  {6ae9efcb-3f6d-47f0-8b7a-9bd87d29f078}, !- Handle
  {87641f19-351a-4bf4-95d1-ed14ee239573}, !- Construction Name
  ExteriorWall,                           !- Intended Surface Type
  Mass;                                   !- Standards Construction Type

OS:Construction,
  {d89c7ac6-dd27-4228-8554-ed65333f08b6}, !- Handle
  ASHRAE 189.1-2009 ExtWall Mass ClimateZone alt-res 5, !- Name
  ,                                       !- Surface Rendering Name
  {a0568cb1-fb79-4d6d-abee-6274077b4514}, !- Layer 1
  {c8776643-c05e-49fb-9af8-1bcc423fef16}, !- Layer 2
  {6a32d407-2240-4885-99be-0143bed33168}, !- Layer 3
  {5b7e5821-89f8-45aa-9ea0-ee4a38c4be47}; !- Layer 4

OS:StandardsInformation:Construction,
  {6435b33c-527a-48be-982d-a40c047cecdd}, !- Handle
  {d89c7ac6-dd27-4228-8554-ed65333f08b6}, !- Construction Name
  ExteriorWall,                           !- Intended Surface Type
  Mass;                                   !- Standards Construction Type

OS:Construction,
  {f34febda-d830-4b0e-bb3c-0647321b2a4b}, !- Handle
  ASHRAE 189.1-2009 ExtWall Mass ClimateZone alt-res 6, !- Name
  ,                                       !- Surface Rendering Name
  {a0568cb1-fb79-4d6d-abee-6274077b4514}, !- Layer 1
  {c8776643-c05e-49fb-9af8-1bcc423fef16}, !- Layer 2
  {181c5fcd-ba2c-4330-93a7-19d9935c4171}, !- Layer 3
  {5b7e5821-89f8-45aa-9ea0-ee4a38c4be47}; !- Layer 4

OS:StandardsInformation:Construction,
  {9a312e04-6d15-4425-b702-dd76673a5adc}, !- Handle
  {f34febda-d830-4b0e-bb3c-0647321b2a4b}, !- Construction Name
  ExteriorWall,                           !- Intended Surface Type
  Mass;                                   !- Standards Construction Type

OS:Construction,
  {bb618d7c-9bbf-4837-bb39-4e4f287a1d74}, !- Handle
  ASHRAE 189.1-2009 ExtWall Mass ClimateZone alt-res 7, !- Name
  ,                                       !- Surface Rendering Name
  {a0568cb1-fb79-4d6d-abee-6274077b4514}, !- Layer 1
  {c8776643-c05e-49fb-9af8-1bcc423fef16}, !- Layer 2
  {181c5fcd-ba2c-4330-93a7-19d9935c4171}, !- Layer 3
  {5b7e5821-89f8-45aa-9ea0-ee4a38c4be47}; !- Layer 4

OS:StandardsInformation:Construction,
  {61ba9925-dc53-41c3-801b-c460b5b1669a}, !- Handle
  {bb618d7c-9bbf-4837-bb39-4e4f287a1d74}, !- Construction Name
  ExteriorWall,                           !- Intended Surface Type
  Mass;                                   !- Standards Construction Type

OS:Construction,
  {ae6a9b4d-78e6-41ee-8338-cfbb038fe7d0}, !- Handle
  ASHRAE 189.1-2009 ExtWall Mass ClimateZone alt-res 8, !- Name