
OS:Version,
  {f3cff884-08f3-43a4-836d-f996094563f1}, !- Handle
  1.2.3;                                  !- Version Identifier

OS:Construction,
  {1cfef21c-e458-4293-8e2b-88fd6a4f3bea}, !- Handle
  ASHRAE 189.1-2009 AtticFloor ClimateZone 1-8, !- Name
  ,                                       !- Surface Rendering Name
  {7611ad12-6868-4aa7-92f1-7e12fca82d88}, !- Layer 1
  {83f85d9f-db16-4a97-bf49-51e7e1e39a8f}, !- Layer 2
  {7611ad12-6868-4aa7-92f1-7e12fca82d88}; !- Layer 3

OS:StandardsInformation:Construction,
  {b3a8e3e4-7127-4e41-ae0c-d1ad23869653}, !- Handle
  {1cfef21c-e458-4293-8e2b-88fd6a4f3bea}, !- Construction Name
  AtticFloor,                             !- Intended Surface Type
  WoodFramed;                             !- Standards Construction Type

OS:Material,
  {7611ad12-6868-4aa7-92f1-7e12fca82d88}, !- Handle
  1/2IN Gypsum,                           !- Name
  Smooth,                                 !- Roughness
  0.0127,                                 !- Thickness {m}
  0.16,                                   !- Conductivity {W/m-K}
  784.9,                                  !- Density {kg/m3}
  830.000000000001,                       !- Specific Heat {J/kg-K}
  0.9,                                    !- Thermal Absorptance
  0.92,                                   !- Solar Absorptance
  0.92;                                   !- Visible Absorptance

OS:Material,
  {83f85d9f-db16-4a97-bf49-51e7e1e39a8f}, !- Handle
  AtticFloor Insulation,                  !- Name
  MediumRough,                            !- Roughness
  0.2379,                                 !- Thickness {m}
  0.049,                                  !- Conductivity {W/m-K}
  265,                                    !- Density {kg/m3}
  836.800000000001,                       !- Specific Heat {J/kg-K}
  0.9,                                    !- Thermal Absorptance
  0.7,                                    !- Solar Absorptance
  0.7;                                    !- Visible Absorptance

OS:Construction,
  {68a7607d-4920-4968-9af7-2d8a55b8d8bb}, !- Handle
  ASHRAE 189.1-2009 ExtRoof IEAD ClimateZone 1, !- Name
  ,                                       !- Surface Rendering Name
  {9ca5953e-d8c3-41aa-b502-de23c9395ef7}, !- Layer 1
  {5348d66c-37d4-44ec-82e7-4fc861ba6811}, !- Layer 2
  {edc5e3d6-a85e-40d7-86f2-e53ba6beb344}; !- Layer 3

OS:StandardsInformation:Construction,
  {c7fc58e3-8dae-483d-84b3-f803f4ed52ff}, !- Handle
  {68a7607d-4920-4968-9af7-2d8a55b8d8bb}, !- Construction Name
  ExteriorRoof,                           !- Intended Surface Type
  IEAD;                                   !- Standards Construction Type

OS:Material,
  {9ca5953e-d8c3-41aa-b502-de23c9395ef7}, !- Handle
  Roof Membrane,                          !- Name
  VeryRough,                              !- Roughness
  0.0095,                                 !- Thickness {m}
  0.16,                                   !- Conductivity {W/m-K}
  1121.29,                                !- Density {kg/m3}
  1460,                                   !- Specific Heat {J/kg-K}
  0.9,                                    !- Thermal Absorptance
  0.7,                                    !- Solar Absorptance
  0.7;                                    !- Visible Absorptance

OS:Material,
  {5348d66c-37d4-44ec-82e7-4fc861ba6811}, !- Handle
  Roof Insulation [18],                   !- Name
  MediumRough,                            !- Roughness
  0.1693,                                 !- Thickness {m}
  0.049,                                  !- Conductivity {W/m-K}
  265,                                    !- Density {kg/m3}
  836.800000000001,                       !- Specific Heat {J/kg-K}
  0.9,                                    !- Thermal Absorptance
  0.7,                                    !- Solar Absorptance
  0.7;                                    !- Visible Absorptance

OS:Material,
  {edc5e3d6-a85e-40d7-86f2-e53ba6beb344}, !- Handle
  Metal Decking,                          !- Name
  MediumSmooth,                           !- Roughness
  0.0015,                                 !- Thickness {m}
  45.006,                                 !- Conductivity {W/m-K}
  7680,                                   !- Density {kg/m3}
  418.4,                                  !- Specific Heat {J/kg-K}
  0.9,                                    !- Thermal Absorptance
  0.7,                                    !- Solar Absorptance
  0.3;                                    !- Visible Absorptance

OS:Construction,
  {8b5e02b1-829e-439c-9f84-c0421f491345}, !- Handle
  ASHRAE 189.1-2009 ExtRoof IEAD ClimateZone 2-5, !- Name
  ,                                       !- Surface Rendering Name
  {9ca5953e-d8c3-41aa-b502-de23c9395ef7}, !- Layer 1
  {5e71e52d-45da-47cf-a3ba-d417d0daa8bd}, !- Layer 2
  {edc5e3d6-a85e-40d7-86f2-e53ba6beb344}; !- Layer 3

OS:StandardsInformation:Construction,
  {a0aa89c3-007d-4a58-bf37-81eed8c1f1d6}, !- Handle
  {8b5e02b1-829e-439c-9f84-c0421f491345}, !- Construction Name
  ExteriorRoof,                           !- Intended Surface Type
  IEAD;                                   !- Standards Construction Type

OS:Material,
  {5e71e52d-45da-47cf-a3ba-d417d0daa8bd}, !- Handle
  Roof Insulation [21],                   !- Name
  MediumRough,                            !- Roughness
  0.2105,                                 !- Thickness {m}
  0.049,                                  !- Conductivity {W/m-K}
  265,                                    !- Density {kg/m3}
  836.800000000001,                       !- Specific Heat {J/kg-K}
  0.9,                                    !- Thermal Absorptance
  0.7,                                    !- Solar Absorptance
  0.7;                                    !- Visible Absorptance

OS:Construction,
  {d438ffd5-5e86-4383-b1e5-f86b6f652ee4}, !- Handle
  ASHRAE 189.1-2009 ExtRoof IEAD ClimateZone 6, !- Name
  ,                                       !- Surface Rendering Name
  {9ca5953e-d8c3-41aa-b502-de23c9395ef7}, !- Layer 1
  {28e2c420-0764-4efc-8f18-dfbf5da8841d}, !- Layer 2
  {edc5e3d6-a85e-40d7-86f2-e53ba6beb344}; !- Layer 3

OS:StandardsInformation:Construction,
  {cec1e1fa-df55-4b4c-8d22-0dc6fa4d2c02}, !- Handle
  {d438ffd5-5e86-4383-b1e5-f86b6f652ee4}, !- Construction Name
  ExteriorRoof,                           !- Intended Surface Type
  IEAD;                                   !- Standards Construction Type

OS:Material,
  {28e2c420-0764-4efc-8f18-dfbf5da8841d}, !- Handle
  Roof Insulation [24],                   !- Name
  MediumRough,                            !- Roughness
  0.260100000000001,                      !- Thickness {m}
  0.049,                                  !- Conductivity {W/m-K}
  265,                                    !- Density {kg/m3}
  836.800000000001,                       !- Specific Heat {J/kg-K}
  0.9,                                    !- Thermal Absorptance
  0.7,                                    !- Solar Absorptance
  0.7;                                    !- Visible Absorptance

OS:Construction,
  {a8bb4d01-7b8d-4d7d-bac0-f29414e2b0c0}, !- Handle
  ASHRAE 189.1-2009 ExtRoof IEAD ClimateZone 7-8, !- Name
  ,                                       !- Surface Rendering Name
  {9ca5953e-d8c3-41aa-b502-de23c9395ef7}, !- Layer 1
  {52ea6c7a-3472-47af-8793-f50331c7cabe}, !- Layer 2
  {edc5e3d6-a85e-40d7-86f2-e53ba6beb344}; !- Layer 3

OS:StandardsInformation:Construction,
  {662dc586-737a-40be-8338-1b2eb5c868fc}, !- Handle
  {a8bb4d01-7b8d-4d7d-bac0-f29414e2b0c0}, !- Construction Name
  ExteriorRoof,                           !- Intended Surface Type
  IEAD;                                   !- Standards Construction Type

OS:Material,
  {52ea6c7a-3472-47af-8793-f50331c7cabe}, !- Handle
  Roof Insulation [26],                   !- Name
  MediumRough,                            !- Roughness
  0.2941,                                 !- Thickness {m}
  0.049,                                  !- Conductivity {W/m-K}
  265,                                    !- Density {kg/m3}
  836.800000000001,                       !- Specific Heat {J/kg-K}
  0.9,                                    !- Thermal Absorptance
  0.7,                                    !- Solar Absorptance
  0.7;                                    !- Visible Absorptance

OS:Construction,
  {b377dcf4-2efc-47b6-97a1-fffa24be49aa}, !- Handle
  ASHRAE 189.1-2009 ExtRoof Metal ClimateZone 1, !- Name
  ,                                       !- Surface Rendering Name
  {bb6529ac-2fba-48b8-8a29-e38840e9b4f5}, !- Layer 1
  {1a727801-f05a-4577-9d3d-66ebd13e6899}; !- Layer 2

OS:StandardsInformation:Construction,
  {bce66db8-9df5-45c1-8cc5-86fec974363a}, !- Handle
  {b377dcf4-2efc-47b6-97a1-fffa24be49aa}, !- Construction Name
  ExteriorRoof,                           !- Intended Surface Type
  Metal;                                  !- Standards Construction Type

OS:Material,
  {bb6529ac-2fba-48b8-8a29-e38840e9b4f5}, !- Handle
  Metal Roofing,                          !- Name
  MediumSmooth,                           !- Roughness
  0.0015,                                 !- Thickness {m}
  45.006,                                 !- Conductivity {W/m-K}
  7680,                                   !- Density {kg/m3}
  418.4,                                  !- Specific Heat {J/kg-K}
  0.9,                                    !- Thermal Absorptance
  0.3,                                    !- Solar Absorptance
  0.3;                                    !- Visible Absorptance

OS:Material,
  {1a727801-f05a-4577-9d3d-66ebd13e6899}, !- Handle
  Roof Insulation [19],                   !- Name
  MediumRough,                            !- Roughness
  0.1868,                                 !- Thickness {m}
  0.049,                                  !- Conductivity {W/m-K}
  265,                                    !- Density {kg/m3}
  836.800000000001,                       !- Specific Heat {J/kg-K}
  0.9,                                    !- Thermal Absorptance
  0.7,                                    !- Solar Absorptance
  0.7;                                    !- Visible Absorptance

OS:Construction,
  {cc29102b-d996-4dc8-84f4-63eef780ca8a}, !- Handle
  ASHRAE 189.1-2009 ExtRoof Metal ClimateZone 2-5, !- Name
  ,                                       !- Surface Rendering Name
  {bb6529ac-2fba-48b8-8a29-e38840e9b4f5}, !- Layer 1
  {01a10ef1-03e2-4bda-b534-d14422c5ca12}; !- Layer 2

OS:StandardsInformation:Construction,
  {684d0090-3a3a-44bd-9911-1a60576dff69}, !- Handle
  {cc29102b-d996-4dc8-84f4-63eef780ca8a}, !- Construction Name
  ExteriorRoof,                           !- Intended Surface Type
  Metal;                                  !- Standards Construction Type

OS:Material,
  {01a10ef1-03e2-4bda-b534-d14422c5ca12}, !- Handle
  Roof Insulation [22],                   !- Name
  MediumRough,                            !- Roughness
  0.2358,                                 !- Thickness {m}
  0.049,                                  !- Conductivity {W/m-K}
  265,                                    !- Density {kg/m3}
  836.800000000001,                       !- Specific Heat {J/kg-K}
  0.9,                                    !- Thermal Absorptance
  0.7,                                    !- Solar Absorptance
  0.7;                                    !- Visible Absorptance

OS:Construction,
  {7b813fa3-4c86-4f71-ac45-07b6d651dd91}, !- Handle
  ASHRAE 189.1-2009 ExtRoof Metal ClimateZone 6, !- Name
  ,                                       !- Surface Rendering Name
  {bb6529ac-2fba-48b8-8a29-e38840e9b4f5}, !- Layer 1
  {11d2dd4a-b470-44ca-bcbb-b53df04e5feb}; !- Layer 2

OS:StandardsInformation:Construction,
  {381da184-3e23-49f4-9a6b-eb58486088fc}, !- Handle
  {7b813fa3-4c86-4f71-ac45-07b6d651dd91}, !- Construction Name
  ExteriorRoof,                           !- Intended Surface Type
  Metal;                                  !- Standards Construction Type

OS:Material,
  {11d2dd4a-b470-44ca-bcbb-b53df04e5feb}, !- Handle
  Roof Insulation [25],                   !- Name
  MediumRough,                            !- Roughness
  0.263,                                  !- Thickness {m}
  0.049,                                  !- Conductivity {W/m-K}
  265,                                    !- Density {kg/m3}
  836.800000000001,                       !- Specific Heat {J/kg-K}
  0.9,                                    !- Thermal Absorptance
  0.7,                                    !- Solar Absorptance
  0.7;                                    !- Visible Absorptance

OS:Construction,
  {183f3f9c-be38-4fba-a58c-8064e9f5001b}, !- Handle
  ASHRAE 189.1-2009 ExtRoof Metal ClimateZone 7-8, !- Name
  ,                                       !- Surface Rendering Name
  {bb6529ac-2fba-48b8-8a29-e38840e9b4f5}, !- Layer 1
  {35a846a8-e3d4-401e-ba4e-769b07f78588}; !- Layer 2

OS:StandardsInformation:Construction,
  {d7985fd9-ccce-4614-b8ac-7a74e999ced8}, !- Handle
  {183f3f9c-be38-4fba-a58c-8064e9f5001b}, !- Construction Name
  ExteriorRoof,                           !- Intended Surface Type
  Metal;                                  !- Standards Construction Type

OS:Material,
  {35a846a8-e3d4-401e-ba4e-769b07f78588}, !- Handle
  Roof Insulation [27],                   !- Name
  MediumRough,                            !- Roughness
  0.297000000000001,                      !- Thickness {m}
  0.049,                                  !- Conductivity {W/m-K}
  265,                                    !- Density {kg/m3}
  836.800000000001,                       !- Specific Heat {J/kg-K}
  0.9,                                    !- Thermal Absorptance
  0.7,                                    !- Solar Absorptance
  0.7;                                    !- Visible Absorptance

OS:Construction,
  {8240995b-a50d-465d-bb4d-ebfd642f11f0}, !- Handle
  ASHRAE 189.1-2009 ExtWall Mass ClimateZone 1, !- Name
  ,                                       !- Surface Rendering Name
  {567451de-0400-449c-8bb9-2466f2340b6a}, !- Layer 1
  {8158d3c2-f049-4078-81fa-0c2c51b82e15}, !- Layer 2
  {ce21e4b1-8302-413a-a1e1-e169d79a1088}, !- Layer 3
  {7611ad12-6868-4aa7-92f1-7e12fca82d88}; !- Layer 4

OS:StandardsInformation:Construction,
  {5954c8c6-86fc-46ba-91bb-790bc1551aae}, !- Handle
  {8240995b-a50d-465d-bb4d-ebfd642f11f0}, !- Construction Name
  ExteriorWall,                           !- Intended Surface Type
  Mass;                                   !- Standards Construction Type

OS:Material,
  {567451de-0400-449c-8bb9-2466f2340b6a}, !- Handle
  1IN Stucco,                             !- Name
  Smooth,                                 !- Roughness
  0.0253,                                 !- Thickness {m}
  0.691799999999999,                      !- Conductivity {W/m-K}
  1858,                                   !- Density {kg/m3}
  836.999999999999,                       !- Specific Heat {J/kg-K}
  0.9,                                    !- Thermal Absorptance
  0.92,                                   !- Solar Absorptance
  0.92;                                   !- Visible Absorptance

OS:Material,
  {8158d3c2-f049-4078-81fa-0c2c51b82e15}, !- Handle
  8IN Concrete HW,                        !- Name
  MediumRough,                            !- Roughness
  0.2033,                                 !- Thickness {m}
  1.72959999999999,                       !- Conductivity {W/m-K}
  2242.99999999999,                       !- Density {kg/m3}
  836.999999999999,                       !- Specific Heat {J/kg-K}
  0.9,                                    !- Thermal Absorptance
  0.65,                                   !- Solar Absorptance
  0.65;                                   !- Visible Absorptance

OS:Material,
  {ce21e4b1-8302-413a-a1e1-e169d79a1088}, !- Handle
  Wall Insulation [31],                   !- Name
  MediumRough,                            !- Roughness
  0.0337000000000001,                     !- Thickness {m}
  0.0432,                                 !- Conductivity {W/m-K}
  91,                                     !- Density {kg/m3}
  836.999999999999,                       !- Specific Heat {J/kg-K}
  0.9,                                    !- Thermal Absorptance
  0.5,                                    !- Solar Absorptance
  0.5;                                    !- Visible Absorptance

OS:Construction,
  {ba88a82d-a233-4a14-9bc4-f6f5745dbd1f}, !- Handle
  ASHRAE 189.1-2009 ExtWall Mass ClimateZone 2, !- Name
  ,                                       !- Surface Rendering Name
  {567451de-0400-449c-8bb9-2466f2340b6a}, !- Layer 1
  {8158d3c2-f049-4078-81fa-0c2c51b82e15}, !- Layer 2
  {6e4d7d6a-5e15-451e-b9c3-53119c2caec3}, !- Layer 3
  {7611ad12-6868-4aa7-92f1-7e12fca82d88}; !- Layer 4

OS:StandardsInformation:Construction,
  {b445060a-b784-4a45-a0dc-531db9916800}, !- Handle
  {ba88a82d-a233-4a14-9bc4-f6f5745dbd1f}, !- Construction Name
  ExteriorWall,                           !- Intended Surface Type
  Mass;                                   !- Standards Construction Type

OS:Material,
  {6e4d7d6a-5e15-451e-b9c3-53119c2caec3}, !- Handle
  Wall Insulation [35],                   !- Name
  MediumRough,                            !- Roughness
  0.0452,                                 !- Thickness {m}
  0.0432,                                 !- Conductivity {W/m-K}
  91,                                     !- Density {kg/m3}
  836.999999999999,                       !- Specific Heat {J/kg-K}
  0.9,                                    !- Thermal Absorptance
  0.5,                                    !- Solar Absorptance
  0.5;                                    !- Visible Absorptance

OS:Construction,
  {d8e9de56-282d-41d1-818c-d347147049cd}, !- Handle
  ASHRAE 189.1-2009 ExtWall Mass ClimateZone 3, !- Name
  ,                                       !- Surface Rendering Name
  {567451de-0400-449c-8bb9-2466f2340b6a}, !- Layer 1
  {8158d3c2-f049-4078-81fa-0c2c51b82e15}, !- Layer 2
  {f73d55a8-b6c7-4cda-829f-7258e28d431d}, !- Layer 3
  {7611ad12-6868-4aa7-92f1-7e12fca82d88}; !- Layer 4

OS:StandardsInformation:Construction,
  {e95c059e-3301-4e12-b6dd-312100cbad6f}, !- Handle
  {d8e9de56-282d-41d1-818c-d347147049cd}, !- Construction Name
  ExteriorWall,                           !- Intended Surface Type
  Mass;                                   !- Standards Construction Type

OS:Material,
  {f73d55a8-b6c7-4cda-829f-7258e28d431d}, !- Handle
  Wall Insulation [36],                   !- Name
  MediumRough,                            !- Roughness
  0.0565999999999999,                     !- Thickness {m}
  0.0432,                                 !- Conductivity {W/m-K}
  91,                                     !- Density {kg/m3}
  836.999999999999,                       !- Specific Heat {J/kg-K}
  0.9,                                    !- Thermal Absorptance
  0.5,                                    !- Solar Absorptance
  0.5;                                    !- Visible Absorptance

OS:Construction,
  {342980d0-3cef-4a89-811a-3ba16e358375}, !- Handle
  ASHRAE 189.1-2009 ExtWall Mass ClimateZone 4, !- Name
  ,                                       !- Surface Rendering Name
  {567451de-0400-449c-8bb9-2466f2340b6a}, !- Layer 1
  {8158d3c2-f049-4078-81fa-0c2c51b82e15}, !- Layer 2
  {5e1613eb-1108-450d-b574-c29f936d44cb}, !- Layer 3
  {7611ad12-6868-4aa7-92f1-7e12fca82d88}; !- Layer 4

OS:StandardsInformation:Construction,
  {c87e4f3c-5098-483f-8039-c8086c7f30ef}, !- Handle
  {342980d0-3cef-4a89-811a-3ba16e358375}, !- Construction Name
  ExteriorWall,                           !- Intended Surface Type
  Mass;                                   !- Standards Construction Type

OS:Material,
  {5e1613eb-1108-450d-b574-c29f936d44cb}, !- Handle
  Wall Insulation [37],                   !- Name
  MediumRough,                            !- Roughness
  0.0680999999999999,                     !- Thickness {m}
  0.0432,                                 !- Conductivity {W/m-K}
  91,                                     !- Density {kg/m3}
  836.999999999999,                       !- Specific Heat {J/kg-K}
  0.9,                                    !- Thermal Absorptance
  0.5,                                    !- Solar Absorptance
  0.5;                                    !- Visible Absorptance

OS:Construction,
  {2863de95-6419-49f4-84da-4f7b6ed5eebc}, !- Handle
  ASHRAE 189.1-2009 ExtWall Mass ClimateZone 5, !- Name
  ,                                       !- Surface Rendering Name
  {567451de-0400-449c-8bb9-2466f2340b6a}, !- Layer 1
  {8158d3c2-f049-4078-81fa-0c2c51b82e15}, !- Layer 2
  {024d92e7-4553-456a-903e-48de3b364d5f}, !- Layer 3
  {7611ad12-6868-4aa7-92f1-7e12fca82d88}; !- Layer 4

OS:StandardsInformation:Construction,
  {f44550bf-9847-4b59-9866-538613fb5816}, !- Handle
  {2863de95-6419-49f4-84da-4f7b6ed5eebc}, !- Construction Name
  ExteriorWall,                           !- Intended Surface Type
  Mass;                                   !- Standards Construction Type

OS:Material,
  {024d92e7-4553-456a-903e-48de3b364d5f}, !- Handle
  Wall Insulation [40],                   !- Name
  MediumRough,                            !- Roughness
  0.0793999999999999,                     !- Thickness {m}
  0.0432,                                 !- Conductivity {W/m-K}
  91,                                     !- Density {kg/m3}
  836.999999999999,                       !- Specific Heat {J/kg-K}
  0.9,                                    !- Thermal Absorptance
  0.5,                                    !- Solar Absorptance
  0.5;                                    !- Visible Absorptance

OS:Construction,
  {b1262d0b-5110-4b7c-8afc-0c76045c7db4}, !- Handle
  ASHRAE 189.1-2009 ExtWall Mass ClimateZone 6, !- Name
  ,                                       !- Surface Rendering Name
  {567451de-0400-449c-8bb9-2466f2340b6a}, !- Layer 1
  {8158d3c2-f049-4078-81fa-0c2c51b82e15}, !- Layer 2
  {990570a8-2d4a-45cc-afdb-04f6dff136fb}, !- Layer 3
  {7611ad12-6868-4aa7-92f1-7e12fca82d88}; !- Layer 4

OS:StandardsInformation:Construction,
  {809cd177-f14e-4cd1-ad20-7f1cda1f25ad}, !- Handle
  {b1262d0b-5110-4b7c-8afc-0c76045c7db4}, !- Construction Name
  ExteriorWall,                           !- Intended Surface Type
  Mass;                                   !- Standards Construction Type

OS:Material,
  {990570a8-2d4a-45cc-afdb-04f6dff136fb}, !- Handle
  Wall Insulation [42],                   !- Name
  MediumRough,                            !- Roughness
  0.0913999999999999,                     !- Thickness {m}
  0.0432,                                 !- Conductivity {W/m-K}
  91,                                     !- Density {kg/m3}
  836.999999999999,                       !- Specific Heat {J/kg-K}
  0.9,                                    !- Thermal Absorptance
  0.5,                                    !- Solar Absorptance
  0.5;                                    !- Visible Absorptance

OS:Construction,
  {7ad3ab71-8648-4b70-a883-8ff6638f830c}, !- Handle
  ASHRAE 189.1-2009 ExtWall Mass ClimateZone 7-8, !- Name
  ,                                       !- Surface Rendering Name
  {567451de-0400-449c-8bb9-2466f2340b6a}, !- Layer 1
  {8158d3c2-f049-4078-81fa-0c2c51b82e15}, !- Layer 2
  {9cbc7f54-8d87-4ea7-b369-0e880e1e3fc0}, !- Layer 3
  {7611ad12-6868-4aa7-92f1-7e12fca82d88}; !- Layer 4

OS:StandardsInformation:Construction,
  {9dbf7270-2c4f-49db-a07d-2b7ca1ba9c68}, !- Handle
  {7ad3ab71-8648-4b70-a883-8ff6638f830c}, !- Construction Name
  ExteriorWall,                           !- Intended Surface Type
  Mass;                                   !- Standards Construction Type

OS:Material,
  {9cbc7f54-8d87-4ea7-b369-0e880e1e3fc0}, !- Handle
  Wall Insulation [44],                   !- Name
  MediumRough,                            !- Roughness
  0.1104,                                 !- Thickness {m}
  0.0432,                                 !- Conductivity {W/m-K}
  91,                                     !- Density {kg/m3}
  836.999999999999,                       !- Specific Heat {J/kg-K}
  0.9,                                    !- Thermal Absorptance
  0.5,                                    !- Solar Absorptance
  0.5;                                    !- Visible Absorptance

OS:Construction,
  {d8699811-5f70-4596-8ca7-0a4d1d92d395}, !- Handle
  ASHRAE 189.1-2009 ExtWall Mass ClimateZone alt-res 1, !- Name
  ,                                       !- Surface Rendering Name
  {567451de-0400-449c-8bb9-2466f2340b6a}, !- Layer 1
  {8158d3c2-f049-4078-81fa-0c2c51b82e15}, !- Layer 2
  {6e4d7d6a-5e15-451e-b9c3-53119c2caec3}, !- Layer 3
  {7611ad12-6868-4aa7-92f1-7e12fca82d88}; !- Layer 4

OS:StandardsInformation:Construction,
  {ea6b40cb-2bec-4b77-a4f0-8054b57d0c2d}, !- Handle
  {d8699811-5f70-4596-8ca7-0a4d1d92d395}, !- Construction Name
  ExteriorWall,                           !- Intended Surface Type
  Mass;                                   !- Standards Construction Type

OS:Construction,
  {c84b39da-882f-4dbf-98c9-441b26643779}, !- Handle
  ASHRAE 189.1-2009 ExtWall Mass ClimateZone alt-res 2, !- Name
  ,                                       !- Surface Rendering Name
  {567451de-0400-449c-8bb9-2466f2340b6a}, !- Layer 1
  {8158d3c2-f049-4078-81fa-0c2c51b82e15}, !- Layer 2
  {f73d55a8-b6c7-4cda-829f-7258e28d431d}, !- Layer 3
  {7611ad12-6868-4aa7-92f1-7e12fca82d88}; !- Layer 4

OS:StandardsInformation:Construction,
  {18679fb2-d4c7-4937-86cb-473de4fad43a}, !- Handle
  {c84b39da-882f-4dbf-98c9-441b26643779}, !- Construction Name
  ExteriorWall,                           !- Intended Surface Type
  Mass;                                   !- Standards Construction Type

OS:Construction,
  {6ff0c459-81c4-4e64-9a45-ab58dba0db5e}, !- Handle
  ASHRAE 189.1-2009 ExtWall Mass ClimateZone alt-res 3, !- Name
  ,                                       !- Surface Rendering Name
  {567451de-0400-449c-8bb9-2466f2340b6a}, !- Layer 1
  {8158d3c2-f049-4078-81fa-0c2c51b82e15}, !- Layer 2
  {5e1613eb-1108-450d-b574-c29f936d44cb}, !- Layer 3
  {7611ad12-6868-4aa7-92f1-7e12fca82d88}; !- Layer 4

OS:StandardsInformation:Construction,
  {91844749-bfed-479d-81bf-323f0bce9f09}, !- Handle
  {6ff0c459-81c4-4e64-9a45-ab58dba0db5e}, !- Construction Name
  ExteriorWall,                           !- Intended Surface Type
  Mass;                                   !- Standards Construction Type

OS:Construction,
  {553d1d8f-d52d-4445-a5e4-c401ad8ccef1}, !- Handle
  ASHRAE 189.1-2009 ExtWall Mass ClimateZone alt-res 4, !- Name
  ,                                       !- Surface Rendering Name
  {567451de-0400-449c-8bb9-2466f2340b6a}, !- Layer 1
  {8158d3c2-f049-4078-81fa-0c2c51b82e15}, !- Layer 2
  {024d92e7-4553-456a-903e-48de3b364d5f}, !- Layer 3
  {7611ad12-6868-4aa7-92f1-7e12fca82d88}; !- Layer 4

OS:StandardsInformation:Construction,
  {b1a2fc39-97ba-4aa0-8305-2065154d8656}, !- Handle
  {553d1d8f-d52d-4445-a5e4-c401ad8ccef1}, !- Construction Name
  ExteriorWall,                           !- Intended Surface Type
  Mass;                                   !- Standards Construction Type

OS:Construction,
  {0f7ff3e4-7549-4b7b-bb0a-40520144399c}, !- Handle
  ASHRAE 189.1-2009 ExtWall Mass ClimateZone alt-res 5, !- Name
  ,                                       !- Surface Rendering Name
  {567451de-0400-449c-8bb9-2466f2340b6a}, !- Layer 1
  {8158d3c2-f049-4078-81fa-0c2c51b82e15}, !- Layer 2
  {990570a8-2d4a-45cc-afdb-04f6dff136fb}, !- Layer 3
  {7611ad12-6868-4aa7-92f1-7e12fca82d88}; !- Layer 4

OS:StandardsInformation:Construction,
  {ba113b09-859e-4e45-b4f4-6fc84052e340}, !- Handle
  {0f7ff3e4-7549-4b7b-bb0a-40520144399c}, !- Construction Name
  ExteriorWall,                           !- Intended Surface Type
  Mass;                                   !- Standards Construction Type

OS:Construction,
  {944d9e21-2ff0-4908-9d1d-d6c0a8b8618b}, !- Handle
  ASHRAE 189.1-2009 ExtWall Mass ClimateZone alt-res 6, !- Name
  ,                                       !- Surface Rendering Name
  {567451de-0400-449c-8bb9-2466f2340b6a}, !- Layer 1
  {8158d3c2-f049-4078-81fa-0c2c51b82e15}, !- Layer 2
  {9cbc7f54-8d87-4ea7-b369-0e880e1e3fc0}, !- Layer 3
  {7611ad12-6868-4aa7-92f1-7e12fca82d88}; !- Layer 4

OS:StandardsInformation:Construction,
  {b1aad75e-2a4f-425a-b743-6f1cebff7b8d}, !- Handle
  {944d9e21-2ff0-4908-9d1d-d6c0a8b8618b}, !- Construction Name
  ExteriorWall,                           !- Intended Surface Type
  Mass;                                   !- Standards Construction Type

OS:Construction,
  {56eb2ad1-fff1-4c0d-95aa-11c1dc7f0602}, !- Handle
  ASHRAE 189.1-2009 ExtWall Mass ClimateZone alt-res 7, !- Name
  ,                                       !- Surface Rendering Name
  {567451de-0400-449c-8bb9-2466f2340b6a}, !- Layer 1
  {8158d3c2-f049-4078-81fa-0c2c51b82e15}, !- Layer 2
  {9cbc7f54-8d87-4ea7-b369-0e880e1e3fc0}, !- Layer 3
  {7611ad12-6868-4aa7-92f1-7e12fca82d88}; !- Layer 4

OS:StandardsInformation:Construction,
  {6fe1eb00-ee65-4994-ad50-e74e705d98b8}, !- Handle
  {56eb2ad1-fff1-4c0d-95aa-11c1dc7f0602}, !- Construction Name
  ExteriorWall,                           !- Intended Surface Type
  Mass;                                   !- Standards Construction Type

OS:Construction,
  {a5375fc4-5e24-48c3-ba05-dddcf59585fe}, !- Handle
  ASHRAE 189.1-2009 ExtWall Mass ClimateZone alt-res 8, !- Name