
OS:Version,
  {2dbba0ce-640f-4419-ae9d-815d5521e952}, !- Handle
  3.6.1;                                  !- Version Identifier

OS:SimulationControl,
  {f38b9671-b971-4c65-b175-9c448dd8b6b0}, !- Handle
  Yes,                                    !- Do Zone Sizing Calculation
  Yes,                                    !- Do System Sizing Calculation
  ,                                       !- Do Plant Sizing Calculation
  No,                                     !- Run Simulation for Sizing Periods
  Yes;                                    !- Run Simulation for Weather File Run Periods

OS:Timestep,
  {703dbbd0-7cfb-415c-a7ca-3594826e3f92}, !- Handle
  6;                                      !- Number of Timesteps per Hour

OS:RunPeriod,
  {70bef355-3bb3-439e-97cb-97765583616c}, !- Handle
  Run Period 1,                           !- Name
  1,                                      !- Begin Month
  1,                                      !- Begin Day of Month
  12,                                     !- End Month
  31,                                     !- End Day of Month
  No,                                     !- Use Weather File Holidays and Special Days
  No,                                     !- Use Weather File Daylight Saving Period
  No,                                     !- Apply Weekend Holiday Rule
  Yes,                                    !- Use Weather File Rain Indicators
  Yes,                                    !- Use Weather File Snow Indicators
  1;                                      !- Number of Times Runperiod to be Repeated

OS:SurfaceConvectionAlgorithm:Inside,
  {a45491d4-f04e-421b-b367-71ff4c1d1f05}, !- Handle
  TARP;                                   !- Algorithm

OS:SurfaceConvectionAlgorithm:Outside,
  {481d1dbd-4627-4587-be84-bddb35c9fb02}, !- Handle
  DOE-2;                                  !- Algorithm

OS:HeatBalanceAlgorithm,
  {14543fe7-fa46-467f-96ee-5fe466da15ef}, !- Handle
  ConductionTransferFunction,             !- Algorithm
  200;                                    !- Surface Temperature Upper Limit {C}

OS:ZoneAirHeatBalanceAlgorithm,
  {4fefafb7-b4c8-4f21-8aba-5ecfd2671bc2}, !- Handle
  ,                                       !- Algorithm
  ,                                       !- Do Space Heat Balance for Sizing
  ;                                       !- Do Space Heat Balance for Simulation

OS:ConvergenceLimits,
  {934bd57d-96b3-41d0-9b34-20b70f96b494}, !- Handle
  1;                                      !- Minimum System Timestep {minutes}

OS:ShadowCalculation,
  {04415346-0b6f-40d9-87b3-f78cfff73202}, !- Handle
  PolygonClipping,                        !- Shading Calculation Method
  ,                                       !- Shading Calculation Update Frequency Method
  20,                                     !- Shading Calculation Update Frequency
  15000,                                  !- Maximum Figures in Shadow Overlap Calculations
  ,                                       !- Polygon Clipping Algorithm
  512,                                    !- Pixel Counting Resolution
  ,                                       !- Sky Diffuse Modeling Algorithm
  No,                                     !- Output External Shading Calculation Results
  No,                                     !- Disable Self-Shading Within Shading Zone Groups
  No;                                     !- Disable Self-Shading From Shading Zone Groups to Other Zones

OS:Site,
  {00ca6c32-813f-4a09-9ef2-235aa399b68a}, !- Handle
  Site 1,                                 !- Name
  41.77,                                  !- Latitude {deg}
  -87.75,                                 !- Longitude {deg}
  -6,                                     !- Time Zone {hr}
  190,                                    !- Elevation {m}
  ;                                       !- Terrain

OS:Site:GroundTemperature:BuildingSurface,
  {1931a97e-6078-4dd9-bdc6-957bd616613a}, !- Handle
  19.527,                                 !- January Ground Temperature {C}
  19.502,                                 !- February Ground Temperature {C}
  19.536,                                 !- March Ground Temperature {C}
  19.598,                                 !- April Ground Temperature {C}
  20.002,                                 !- May Ground Temperature {C}
  21.64,                                  !- June Ground Temperature {C}
  22.225,                                 !- July Ground Temperature {C}
  22.375,                                 !- August Ground Temperature {C}
  21.449,                                 !- September Ground Temperature {C}
  20.121,                                 !- October Ground Temperature {C}
  19.802,                                 !- November Ground Temperature {C}
  19.633;                                 !- December Ground Temperature {C}

OS:Site:GroundTemperature:Deep,
  {be5fb1b9-5983-437d-830c-e4dbfd5e5c7b}, !- Handle
  19.527,                                 !- January Deep Ground Temperature {C}
  19.502,                                 !- February Deep Ground Temperature {C}
  19.536,                                 !- March Deep Ground Temperature {C}
  19.598,                                 !- April Deep Ground Temperature {C}
  20.002,                                 !- May Deep Ground Temperature {C}
  21.64,                                  !- June Deep Ground Temperature {C}
  22.225,                                 !- July Deep Ground Temperature {C}
  22.375,                                 !- August Deep Ground Temperature {C}
  21.449,                                 !- September Deep Ground Temperature {C}
  20.121,                                 !- October Deep Ground Temperature {C}
  19.802,                                 !- November Deep Ground Temperature {C}
  19.633;                                 !- December Deep Ground Temperature {C}

OS:Site:WaterMainsTemperature,
  {2c1aeb39-8b2b-40d9-a71d-96e17a37e89a}, !- Handle
  Correlation,                            !- Calculation Method
  ,                                       !- Temperature Schedule Name
  9.69,                                   !- Annual Average Outdoor Air Temperature {C}
  28.1;                                   !- Maximum Difference In Monthly Average Outdoor Air Temperatures {deltaC}

OS:SizingPeriod:DesignDay,
  {eba131dc-23e9-4d18-932e-01308f4dd320}, !- Handle
  Sizing Period Design Day 1,             !- Name
  -20.6,                                  !- Maximum Dry-Bulb Temperature {C}
  0,                                      !- Daily Dry-Bulb Temperature Range {deltaC}
  99063,                                  !- Barometric Pressure {Pa}
  4.9,                                    !- Wind Speed {m/s}
  270,                                    !- Wind Direction {deg}
  0,                                      !- Sky Clearness
  No,                                     !- Rain Indicator
  No,                                     !- Snow Indicator
  21,                                     !- Day of Month
  1,                                      !- Month
  WinterDesignDay,                        !- Day Type
  No,                                     !- Daylight Saving Time Indicator
  WetBulb,                                !- Humidity Condition Type
  ,                                       !- Humidity Condition Day Schedule Name
  -20.6,                                  !- Wetbulb or DewPoint at Maximum Dry-Bulb {C}
  ,                                       !- Humidity Ratio at Maximum Dry-Bulb {kgWater/kgDryAir}
  ,                                       !- Enthalpy at Maximum Dry-Bulb {J/kg}
  ;                                       !- Dry-Bulb Temperature Range Modifier Type

OS:SizingPeriod:DesignDay,
  {6644a277-2257-47a6-afd0-bc40e7abd570}, !- Handle
  Sizing Period Design Day 2,             !- Name
  33.2,                                   !- Maximum Dry-Bulb Temperature {C}
  10.7,                                   !- Daily Dry-Bulb Temperature Range {deltaC}
  99063,                                  !- Barometric Pressure {Pa}
  5.3,                                    !- Wind Speed {m/s}
  230,                                    !- Wind Direction {deg}
  1,                                      !- Sky Clearness
  No,                                     !- Rain Indicator
  No,                                     !- Snow Indicator
  21,                                     !- Day of Month
  7,                                      !- Month
  SummerDesignDay,                        !- Day Type
  No,                                     !- Daylight Saving Time Indicator
  WetBulb,                                !- Humidity Condition Type
  ,                                       !- Humidity Condition Day Schedule Name
  23.8,                                   !- Wetbulb or DewPoint at Maximum Dry-Bulb {C}
  ,                                       !- Humidity Ratio at Maximum Dry-Bulb {kgWater/kgDryAir}
  ,                                       !- Enthalpy at Maximum Dry-Bulb {J/kg}
  ;                                       !- Dry-Bulb Temperature Range Modifier Type

OS:ScheduleTypeLimits,
  {88641a14-6b33-463a-960f-3e0496a7fdfb}, !- Handle
  Temperature,                            !- Name
  -60,                                    !- Lower Limit Value
  200,                                    !- Upper Limit Value
  CONTINUOUS,                             !- Numeric Type
  Temperature;                            !- Unit Type

OS:DefaultScheduleSet,
  {d4aa4103-97c9-466b-a965-fd161e35942f}, !- Handle
  Default Schedules,                      !- Name
  ,                                       !- Hours of Operation Schedule Name
  {d8461675-2eb2-4682-9ac8-7b1e83b2809d}, !- Number of People Schedule Name
  {b2099b86-4bd1-4155-8451-c049c6280da5}, !- People Activity Level Schedule Name
  {e3f7e8db-038e-40fc-9c94-9a7352388c09}, !- Lighting Schedule Name
  {56c7e8a3-1ecf-49b8-a962-a5b523778aa6}, !- Electric Equipment Schedule Name
  {0ba1a4dd-7bf4-4d48-ab00-1b123bcd77f8}, !- Gas Equipment Schedule Name
  {ee2272c3-e44e-4140-af68-e755ca97a8ac}, !- Hot Water Equipment Schedule Name
  {c3ccacbd-71f2-446c-b2a2-2c342216bb4b}, !- Infiltration Schedule Name
  ,                                       !- Steam Equipment Schedule Name
  ;                                       !- Other Equipment Schedule Name

OS:Schedule:Ruleset,
  {d8461675-2eb2-4682-9ac8-7b1e83b2809d}, !- Handle
  Medium Office Number of People Schedule, !- Name
  {eef9dd8b-c05f-4136-aa76-a461a40042e0}, !- Schedule Type Limits Name
  {9056a609-51f4-45ed-881a-846617c11247}, !- Default Day Schedule Name
  {0e0987dc-1c82-4e25-b270-dae1af3549ff}; !- Summer Design Day Schedule Name

OS:Schedule:Day,
  {9056a609-51f4-45ed-881a-846617c11247}, !- Handle
  Medium Office Number of People All Other Days Schedule, !- Name
  {eef9dd8b-c05f-4136-aa76-a461a40042e0}, !- Schedule Type Limits Name
  ,                                       !- Interpolate to Timestep
  24,                                     !- Hour 1
  0,                                      !- Minute 1
  0;                                      !- Value Until Time 1

OS:Schedule:Day,
  {ca8f13d7-0119-4b6c-85fb-438e63d8d28c}, !- Handle
  Medium Office Number of People Summer Design Day Schedule, !- Name
  ,                                       !- Schedule Type Limits Name
  ,                                       !- Interpolate to Timestep
  6,                                      !- Hour 1
  0,                                      !- Minute 1
  0,                                      !- Value Until Time 1
  22,                                     !- Hour 2
  0,                                      !- Minute 2
  1,                                      !- Value Until Time 2
  24,                                     !- Hour 3
  0,                                      !- Minute 3
  0.05;                                   !- Value Until Time 3

OS:Schedule:Day,
  {0e0987dc-1c82-4e25-b270-dae1af3549ff}, !- Handle
  Medium Office Number of People Summer Design Day Schedule 1, !- Name
  {eef9dd8b-c05f-4136-aa76-a461a40042e0}, !- Schedule Type Limits Name
  ,                                       !- Interpolate to Timestep
  6,                                      !- Hour 1
  0,                                      !- Minute 1
  0,                                      !- Value Until Time 1
  22,                                     !- Hour 2
  0,                                      !- Minute 2
  1,                                      !- Value Until Time 2
  24,                                     !- Hour 3
  0,                                      !- Minute 3
  0.05;                                   !- Value Until Time 3

OS:Schedule:Rule,
  {47e47b0f-530f-425f-af96-f200910cb487}, !- Handle
  Medium Office Number of People Schedule Weekdays Rule, !- Name
  {d8461675-2eb2-4682-9ac8-7b1e83b2809d}, !- Schedule Ruleset Name
  1,                                      !- Rule Order
  {5c57801e-461d-4fd4-b2c5-aa8bb47340b0}, !- Day Schedule Name
  ,                                       !- Apply Sunday
  Yes,                                    !- Apply Monday
  Yes,                                    !- Apply Tuesday
  Yes,                                    !- Apply Wednesday
  Yes,                                    !- Apply Thursday
  Yes;                                    !- Apply Friday

OS:Schedule:Day,
  {5c57801e-461d-4fd4-b2c5-aa8bb47340b0}, !- Handle
  Medium Office Number of People Weekdays Schedule, !- Name
  {eef9dd8b-c05f-4136-aa76-a461a40042e0}, !- Schedule Type Limits Name
  ,                                       !- Interpolate to Timestep
  6,                                      !- Hour 1
  0,                                      !- Minute 1
  0,                                      !- Value Until Time 1
  7,                                      !- Hour 2
  0,                                      !- Minute 2
  0.1,                                    !- Value Until Time 2
  8,                                      !- Hour 3
  0,                                      !- Minute 3
  0.2,                                    !- Value Until Time 3
  12,                                     !- Hour 4
  0,                                      !- Minute 4
  0.95,                                   !- Value Until Time 4
  13,                                     !- Hour 5
  0,                                      !- Minute 5
  0.5,                                    !- Value Until Time 5
  17,                                     !- Hour 6
  0,                                      !- Minute 6
  0.95,                                   !- Value Until Time 6
  18,                                     !- Hour 7
  0,                                      !- Minute 7
  0.7,                                    !- Value Until Time 7
  20,                                     !- Hour 8
  0,                                      !- Minute 8
  0.4,                                    !- Value Until Time 8
  22,                                     !- Hour 9
  0,                                      !- Minute 9
  0.1,                                    !- Value Until Time 9
  24,                                     !- Hour 10
  0,                                      !- Minute 10
  0.05;                                   !- Value Until Time 10

OS:Schedule:Rule,
  {0211e671-7c67-4fd5-925a-6fa6ae8a3a10}, !- Handle
  Medium Office Number of People Schedule Saturday Rule, !- Name
  {d8461675-2eb2-4682-9ac8-7b1e83b2809d}, !- Schedule Ruleset Name
  0,                                      !- Rule Order
  {1108a02c-4eda-4a15-a65f-96813e3607c8}, !- Day Schedule Name
  ,                                       !- Apply Sunday
  ,                                       !- Apply Monday
  ,                                       !- Apply Tuesday
  ,                                       !- Apply Wednesday
  ,                                       !- Apply Thursday
  ,                                       !- Apply Friday
  Yes;                                    !- Apply Saturday

OS:Schedule:Day,
  {1108a02c-4eda-4a15-a65f-96813e3607c8}, !- Handle
  Medium Office Number of People Saturday Schedule, !- Name
  {eef9dd8b-c05f-4136-aa76-a461a40042e0}, !- Schedule Type Limits Name
  ,                                       !- Interpolate to Timestep
  6,                                      !- Hour 1
  0,                                      !- Minute 1
  0,                                      !- Value Until Time 1
  8,                                      !- Hour 2
  0,                                      !- Minute 2
  0.1,                                    !- Value Until Time 2
  14,                                     !- Hour 3
  0,                                      !- Minute 3
  0.5,                                    !- Value Until Time 3
  17,                                     !- Hour 4
  0,                                      !- Minute 4
  0.1,                                    !- Value Until Time 4
  24,                                     !- Hour 5
  0,                                      !- Minute 5
  0;                                      !- Value Until Time 5

OS:ScheduleTypeLimits,
  {eef9dd8b-c05f-4136-aa76-a461a40042e0}, !- Handle
  Fractional,                             !- Name
  0,                                      !- Lower Limit Value
  1,                                      !- Upper Limit Value
  Continuous;                             !- Numeric Type

OS:Schedule:Ruleset,
  {b2099b86-4bd1-4155-8451-c049c6280da5}, !- Handle
  Medium Office People Activity Level Schedule, !- Name
  {8dadcfdc-4c0f-4bf8-9344-9717e1637b25}, !- Schedule Type Limits Name
  {afcdbdab-1a2c-4f7b-8a4c-9502bea0b987}; !- Default Day Schedule Name

OS:Schedule:Day,
  {afcdbdab-1a2c-4f7b-8a4c-9502bea0b987}, !- Handle
  Medium Office People Activity Level All Days Schedule, !- Name
  {8dadcfdc-4c0f-4bf8-9344-9717e1637b25}, !- Schedule Type Limits Name
  ,                                       !- Interpolate to Timestep
  24,                                     !- Hour 1
  0,                                      !- Minute 1
  120;                                    !- Value Until Time 1

OS:ScheduleTypeLimits,
  {8dadcfdc-4c0f-4bf8-9344-9717e1637b25}, !- Handle
  ActivityLevel,                          !- Name
  0,                                      !- Lower Limit Value
  ,                                       !- Upper Limit Value
  Continuous,                             !- Numeric Type
  ActivityLevel;                          !- Unit Type

OS:Schedule:Ruleset,
  {e3f7e8db-038e-40fc-9c94-9a7352388c09}, !- Handle
  Medium Office Lighting Schedule,        !- Name
  {eef9dd8b-c05f-4136-aa76-a461a40042e0}, !- Schedule Type Limits Name
  {4d426080-7863-4ad4-b185-5d20adc41797}, !- Default Day Schedule Name
  {1ba3417d-74af-4130-b28d-19f681d3494e}, !- Summer Design Day Schedule Name
  {8d5e4d3c-02bb-479b-9370-e8cfd1f8395c}; !- Winter Design Day Schedule Name

OS:Schedule:Day,
  {4d426080-7863-4ad4-b185-5d20adc41797}, !- Handle
  Medium Office Lighting All Other Days Schedule, !- Name
  {eef9dd8b-c05f-4136-aa76-a461a40042e0}, !- Schedule Type Limits Name
  ,                                       !- Interpolate to Timestep
  24,                                     !- Hour 1
  0,                                      !- Minute 1
  0.05;                                   !- Value Until Time 1

OS:Schedule:Day,
  {1a3afc43-5031-43e1-a97a-2088e0724c30}, !- Handle
  Medium Office Lighting Summer Design Day Schedule, !- Name
  ,                                       !- Schedule Type Limits Name
  ,                                       !- Interpolate to Timestep
  6,                                      !- Hour 1
  0,                                      !- Minute 1
  1,                                      !- Value Until Time 1
  24,                                     !- Hour 2
  0,                                      !- Minute 2
  0;                                      !- Value Until Time 2

OS:Schedule:Day,
  {1ba3417d-74af-4130-b28d-19f681d3494e}, !- Handle
  Medium Office Lighting Summer Design Day Schedule 1, !- Name
  {eef9dd8b-c05f-4136-aa76-a461a40042e0}, !- Schedule Type Limits Name
  ,                                       !- Interpolate to Timestep
  6,                                      !- Hour 1
  0,                                      !- Minute 1
  1,                                      !- Value Until Time 1
  24,                                     !- Hour 2
  0,                                      !- Minute 2
  0;                                      !- Value Until Time 2

OS:Schedule:Day,
  {52914cda-7533-4bdc-8e9d-77ca2ad182b0}, !- Handle
  Medium Office Lighting Winter Design Day Schedule, !- Name
  ,                                       !- Schedule Type Limits Name
  ,                                       !- Interpolate to Timestep
  24,                                     !- Hour 1
  0,                                      !- Minute 1
  0;                                      !- Value Until Time 1

OS:Schedule:Day,
  {8d5e4d3c-02bb-479b-9370-e8cfd1f8395c}, !- Handle
  Medium Office Lighting Winter Design Day Schedule 1, !- Name
  {eef9dd8b-c05f-4136-aa76-a461a40042e0}, !- Schedule Type Limits Name
  ,                                       !- Interpolate to Timestep
  24,                                     !- Hour 1
  0,                                      !- Minute 1
  0;                                      !- Value Until Time 1

OS:Schedule:Rule,
  {dc0760bf-9de3-4f72-a95b-c420042fd3e0}, !- Handle
  Medium Office Lighting Schedule Weekdays Rule, !- Name
  {e3f7e8db-038e-40fc-9c94-9a7352388c09}, !- Schedule Ruleset Name
  1,                                      !- Rule Order
  {d447432f-f883-4b10-8117-83400ec6a311}, !- Day Schedule Name
  ,                                       !- Apply Sunday
  Yes,                                    !- Apply Monday
  Yes,                                    !- Apply Tuesday
  Yes,                                    !- Apply Wednesday
  Yes,                                    !- Apply Thursday
  Yes;                                    !- Apply Friday

OS:Schedule:Day,
  {d447432f-f883-4b10-8117-83400ec6a311}, !- Handle
  Medium Office Lighting Weekdays Schedule, !- Name
  {eef9dd8b-c05f-4136-aa76-a461a40042e0}, !- Schedule Type Limits Name
  ,                                       !- Interpolate to Timestep
  5,                                      !- Hour 1
  0,                                      !- Minute 1
  0.05,                                   !- Value Until Time 1
  7,                                      !- Hour 2
  0,                                      !- Minute 2
  0.1,                                    !- Value Until Time 2
  8,                                      !- Hour 3
  0,                                      !- Minute 3
  0.3,                                    !- Value Until Time 3
  17,                                     !- Hour 4
  0,                                      !- Minute 4
  0.9,                                    !- Value Until Time 4
  18,                                     !- Hour 5
  0,                                      !- Minute 5
  0.7,                                    !- Value Until Time 5
  20,                                     !- Hour 6
  0,                                      !- Minute 6
  0.5,                                    !- Value Until Time 6
  22,                                     !- Hour 7
  0,                                      !- Minute 7
  0.3,                                    !- Value Until Time 7
  23,                                     !- Hour 8
  0,                                      !- Minute 8
  0.1,                                    !- Value Until Time 8
  24,                                     !- Hour 9
  0,                                      !- Minute 9
  0.05;                                   !- Value Until Time 9

OS:Schedule:Rule,
  {ef614cfe-cdb6-4454-a6c9-f85b64d096fc}, !- Handle
  Medium Office Lighting Schedule Saturday Rule, !- Name
  {e3f7e8db-038e-40fc-9c94-9a7352388c09}, !- Schedule Ruleset Name
  0,                                      !- Rule Order
  {9dbfd9c2-89ea-4695-b141-f36eb96d6807}, !- Day Schedule Name
  ,                                       !- Apply Sunday
  ,                                       !- Apply Monday
  ,                                       !- Apply Tuesday
  ,                                       !- Apply Wednesday
  ,                                       !- Apply Thursday
  ,                                       !- Apply Friday
  Yes;                                    !- Apply Saturday

OS:Schedule:Day,
  {9dbfd9c2-89ea-4695-b141-f36eb96d6807}, !- Handle
  Medium Office Lighting Saturday Schedule, !- Name
  {eef9dd8b-c05f-4136-aa76-a461a40042e0}, !- Schedule Type Limits Name
  ,                                       !- Interpolate to Timestep
  6,                                      !- Hour 1
  0,                                      !- Minute 1
  0.05,                                   !- Value Until Time 1
  8,                                      !- Hour 2
  0,                                      !- Minute 2
  0.1,                                    !- Value Until Time 2
  14,                                     !- Hour 3
  0,                                      !- Minute 3
  0.5,                                    !- Value Until Time 3
  17,                                     !- Hour 4
  0,                                      !- Minute 4
  0.15,                                   !- Value Until Time 4
  24,                                     !- Hour 5
  0,                                      !- Minute 5
  0.05;                                   !- Value Until Time 5

OS:Schedule:Ruleset,
  {56c7e8a3-1ecf-49b8-a962-a5b523778aa6}, !- Handle
  Medium Office Electric Equipment Schedule, !- Name
  {eef9dd8b-c05f-4136-aa76-a461a40042e0}, !- Schedule Type Limits Name
  {a666403b-7daa-45b0-92c3-4f55f41798a2}, !- Default Day Schedule Name
  {297068c8-685b-466c-acf0-782f0c910d7f}, !- Summer Design Day Schedule Name
  {621d65bc-2dab-4911-ad0b-cf9bdd8f1706}; !- Winter Design Day Schedule Name

OS:Schedule:Day,
  {a666403b-7daa-45b0-92c3-4f55f41798a2}, !- Handle
  Medium Office Electric Equipment All Other Days Schedule, !- Name
  {eef9dd8b-c05f-4136-aa76-a461a40042e0}, !- Schedule Type Limits Name
  ,                                       !- Interpolate to Timestep
  24,                                     !- Hour 1
  0,                                      !- Minute 1
  0.3;                                    !- Value Until Time 1

OS:Schedule:Day,
  {03f3ce13-8c69-4f2f-98b0-80a70b01a99d}, !- Handle
  Medium Office Electric Equipment Summer Design Day Schedule, !- Name
  ,                                       !- Schedule Type Limits Name
  ,                                       !- Interpolate to Timestep
  6,                                      !- Hour 1
  0,                                      !- Minute 1
  1,                                      !- Value Until Time 1
  24,                                     !- Hour 2
  0,                                      !- Minute 2
  0;                                      !- Value Until Time 2

OS:Schedule:Day,
  {297068c8-685b-466c-acf0-782f0c910d7f}, !- Handle
  Medium Office Electric Equipment Summer Design Day Schedule 1, !- Name
  {eef9dd8b-c05f-4136-aa76-a461a40042e0}, !- Schedule Type Limits Name
  ,                                       !- Interpolate to Timestep
  6,                                      !- Hour 1
  0,                                      !- Minute 1
  1,                                      !- Value Until Time 1
  24,                                     !- Hour 2
  0,                                      !- Minute 2
  0;                                      !- Value Until Time 2

OS:Schedule:Day,
  {7309a7c7-c2d7-4dd3-bb1e-968bb9b27456}, !- Handle
  Medium Office Electric Equipment Winter Design Day Schedule, !- Name
  ,                                       !- Schedule Type Limits Name
  ,                                       !- Interpolate to Timestep
  24,                                     !- Hour 1
  0,                                      !- Minute 1
  0;                                      !- Value Until Time 1

OS:Schedule:Day,
  {621d65bc-2dab-4911-ad0b-cf9bdd8f1706}, !- Handle
  Medium Office Electric Equipment Winter Design Day Schedule 1, !- Name
  {eef9dd8b-c05f-4136-aa76-a461a40042e0}, !- Schedule Type Limits Name
  ,                                       !- Interpolate to Timestep
  24,                                     !- Hour 1
  0,                                      !- Minute 1
  0;                                      !- Value Until Time 1

OS:Schedule:Rule,
  {31d10933-9145-416d-9fb9-0145e1bc4e41}, !- Handle
  Medium Office Electric Equipment Schedule Weekdays Rule, !- Name
  {56c7e8a3-1ecf-49b8-a962-a5b523778aa6}, !- Schedule Ruleset Name
  1,                                      !- Rule Order
  {da3092a1-5d61-4756-bee2-ebe6efc43f8d}, !- Day Schedule Name
  ,                                       !- Apply Sunday
  Yes,                                    !- Apply Monday
  Yes,                                    !- Apply Tuesday
  Yes,                                    !- Apply Wednesday
  Yes,                                    !- Apply Thursday
  Yes;                                    !- Apply Friday

OS:Schedule:Day,
  {da3092a1-5d61-4756-bee2-ebe6efc43f8d}, !- Handle
  Medium Office Electric Equipment Weekdays Schedule, !- Name
  {eef9dd8b-c05f-4136-aa76-a461a40042e0}, !- Schedule Type Limits Name
  ,                                       !- Interpolate to Timestep
  8,                                      !- Hour 1