
OS:Version,
  {80593114-aa28-47b0-be51-8a8d38621f64}, !- Handle
  1.9.1;                                  !- Version Identifier

OS:Construction,
  {a6237f40-89e9-4ff7-82d0-694023496b4a}, !- Handle
  Exterior Wall,                          !- Name
  ,                                       !- Surface Rendering Name
  {8675fcde-918a-415f-9635-b0dc0b057faa}, !- Layer 1
  {ccab8591-7303-4f66-bfc9-ac68dc40a343}, !- Layer 2
  {1368c04d-3971-4531-96aa-a6a855c18cf2}, !- Layer 3
  {64b1dd4c-e7fa-4e9e-b10b-8342f6aeeced}, !- Layer 4
  {c807fd89-d1a2-4ba8-975c-a5991f903180}; !- Layer 5

OS:Material,
  {8675fcde-918a-415f-9635-b0dc0b057faa}, !- Handle
  M01 100mm brick,                        !- Name
  MediumRough,                            !- Roughness
  0.1016,                                 !- Thickness {m}
  0.89,                                   !- Conductivity {W/m-K}
  1920,                                   !- Density {kg/m3}
  790;                                    !- Specific Heat {J/kg-K}

OS:Material,
  {ccab8591-7303-4f66-bfc9-ac68dc40a343}, !- Handle
  M15 200mm heavyweight concrete,         !- Name
  MediumRough,                            !- Roughness
  0.2032,                                 !- Thickness {m}
  1.95,                                   !- Conductivity {W/m-K}
  2240,                                   !- Density {kg/m3}
  900;                                    !- Specific Heat {J/kg-K}

OS:Material,
  {1368c04d-3971-4531-96aa-a6a855c18cf2}, !- Handle
  I02 50mm insulation board,              !- Name
  MediumRough,                            !- Roughness
  0.0508,                                 !- Thickness {m}
  0.03,                                   !- Conductivity {W/m-K}
  43,                                     !- Density {kg/m3}
  1210;                                   !- Specific Heat {J/kg-K}

OS:Material:AirGap,
  {64b1dd4c-e7fa-4e9e-b10b-8342f6aeeced}, !- Handle
  F04 Wall air space resistance,          !- Name
  0.15;                                   !- Thermal Resistance {m2-K/W}

OS:Material,
  {c807fd89-d1a2-4ba8-975c-a5991f903180}, !- Handle
  G01a 19mm gypsum board,                 !- Name
  MediumSmooth,                           !- Roughness
  0.019,                                  !- Thickness {m}
  0.16,                                   !- Conductivity {W/m-K}
  800,                                    !- Density {kg/m3}
  1090;                                   !- Specific Heat {J/kg-K}

OS:StandardsInformation:Construction,
  {aa657709-2567-4b06-bc56-6a08404891de}, !- Handle
  {a6237f40-89e9-4ff7-82d0-694023496b4a}, !- Construction Name
  ,                                       !- Intended Surface Type
  ,                                       !- Standards Construction Type
  2,                                      !- Perturbable Layer
  Insulation,                             !- Perturbable Layer Type
  ;                                       !- Other Perturbable Layer Type

OS:ComponentData,
  {1c355ead-3ddd-4e12-ae15-86de968ca2b6}, !- Handle
  Component Data 1,                       !- Name
  {a6efd489-726b-4ee8-85b2-899105236375}, !- UUID
  {8a93bdb4-57cb-4dd6-b470-3e21fd14e3c4}, !- Version UUID
  1443797122,                             !- Creation Timestamp
  1443797122,                             !- Version Timestamp
  {a6237f40-89e9-4ff7-82d0-694023496b4a}, !- Name of Object 1
  {8675fcde-918a-415f-9635-b0dc0b057faa}, !- Name of Object 2
  {ccab8591-7303-4f66-bfc9-ac68dc40a343}, !- Name of Object 3
  {1368c04d-3971-4531-96aa-a6a855c18cf2}, !- Name of Object 4
  {64b1dd4c-e7fa-4e9e-b10b-8342f6aeeced}, !- Name of Object 5
  {c807fd89-d1a2-4ba8-975c-a5991f903180}, !- Name of Object 6
  {aa657709-2567-4b06-bc56-6a08404891de}; !- Name of Object 7

