
OS:Version,
  {3bbf0bf2-8330-4a52-9ee1-7858be13c61d}, !- Handle
  1.9.1;                                  !- Version Identifier

OS:SimulationControl,
  {ff5845ea-b303-4e30-ad9f-e2461ffb4130}, !- Handle
  Yes,                                    !- Do Zone Sizing Calculation
  Yes,                                    !- Do System Sizing Calculation
  ,                                       !- Do Plant Sizing Calculation
  No,                                     !- Run Simulation for Sizing Periods
  Yes;                                    !- Run Simulation for Weather File Run Periods

OS:Timestep,
  {e5e2558d-2de6-4395-8bcc-65c3629556e4}, !- Handle
  6;                                      !- Number of Timesteps per Hour

OS:RunPeriod,
  {b9c2f231-1171-4382-92db-245c764a1e53}, !- Handle
  Run Period 1,                           !- Name
  1,                                      !- Begin Month
  1,                                      !- Begin Day of Month
  12,                                     !- End Month
  31,                                     !- End Day of Month
  No,                                     !- Use Weather File Holidays and Special Days
  No,                                     !- Use Weather File Daylight Saving Period
  No,                                     !- Apply Weekend Holiday Rule
  Yes,                                    !- Use Weather File Rain Indicators
  Yes,                                    !- Use Weather File Snow Indicators
  1;                                      !- Number of Times Runperiod to be Repeated

OS:SurfaceConvectionAlgorithm:Inside,
  {7e053fbb-3339-4875-b04f-bd5fe3743337}, !- Handle
  TARP;                                   !- Algorithm

OS:SurfaceConvectionAlgorithm:Outside,
  {d69bd652-3581-4a6f-9cc6-e77b3586b572}, !- Handle
  DOE-2;                                  !- Algorithm

OS:HeatBalanceAlgorithm,
  {7337375b-ace7-408d-ab50-7e9ab96af83d}, !- Handle
  ConductionTransferFunction,             !- Algorithm
  200;                                    !- Surface Temperature Upper Limit {C}

OS:ZoneAirHeatBalanceAlgorithm,
  {72c71b93-afe9-4bbf-b54e-062336153000}, !- Handle
  ThirdOrderBackwardDifference;           !- Algorithm

OS:ConvergenceLimits,
  {86358de2-0275-4fc4-89c0-bc75c1475057}, !- Handle
  1;                                      !- Minimum System Timestep {minutes}

OS:ShadowCalculation,
  {5ec53679-47f1-45f1-a083-a0cacdd24d09}, !- Handle
  20,                                     !- Calculation Frequency
  15000;                                  !- Maximum Figures in Shadow Overlap Calculations

OS:Site,
  {cf9b7038-5e82-4e89-b9d2-1d9e2e1b9ea2}, !- Handle
  Site 1,                                 !- Name
  41.77,                                  !- Latitude {deg}
  -87.75,                                 !- Longitude {deg}
  -6,                                     !- Time Zone {hr}
  190,                                    !- Elevation {m}
  ;                                       !- Terrain

OS:Site:GroundTemperature:BuildingSurface,
  {14c246ee-b4dd-4dca-bcd5-7ee690bd6e8e}, !- Handle
  19.527,                                 !- January Ground Temperature {C}
  19.502,                                 !- February Ground Temperature {C}
  19.536,                                 !- March Ground Temperature {C}
  19.598,                                 !- April Ground Temperature {C}
  20.002,                                 !- May Ground Temperature {C}
  21.64,                                  !- June Ground Temperature {C}
  22.225,                                 !- July Ground Temperature {C}
  22.375,                                 !- August Ground Temperature {C}
  21.449,                                 !- September Ground Temperature {C}
  20.121,                                 !- October Ground Temperature {C}
  19.802,                                 !- November Ground Temperature {C}
  19.633;                                 !- December Ground Temperature {C}

OS:Site:WaterMainsTemperature,
  {ce7b92a8-cc7e-4f31-8e02-d0cc8cf7e656}, !- Handle
  Correlation,                            !- Calculation Method
  ,                                       !- Temperature Schedule Name
  9.69,                                   !- Annual Average Outdoor Air Temperature {C}
  28.1;                                   !- Maximum Difference In Monthly Average Outdoor Air Temperatures {deltaC}

OS:SizingPeriod:DesignDay,
  {a3c273aa-4c84-4c55-bed0-39d8e45a0546}, !- Handle
  Sizing Period Design Day 1,             !- Name
  -20.6,                                  !- Maximum Dry-Bulb Temperature {C}
  0,                                      !- Daily Dry-Bulb Temperature Range {deltaC}
  -20.6,                                  !- Humidity Indicating Conditions at Maximum Dry-Bulb {BasedOnField A3}
  99063,                                  !- Barometric Pressure {Pa}
  4.9,                                    !- Wind Speed {m/s}
  270,                                    !- Wind Direction {deg}
  0,                                      !- Sky Clearness
  0,                                      !- Rain Indicator
  0,                                      !- Snow Indicator
  21,                                     !- Day of Month
  1,                                      !- Month
  WinterDesignDay,                        !- Day Type
  0,                                      !- Daylight Saving Time Indicator
  WetBulb,                                !- Humidity Indicating Type
  ,                                       !- Humidity Indicating Day Schedule Name
  DefaultMultipliers,                     !- Dry-Bulb Temperature Range Modifier Type
  ,                                       !- Dry-Bulb Temperature Range Modifier Schedule Name
  AshraeClearSky;                         !- Solar Model Indicator

OS:SizingPeriod:DesignDay,
  {e8a63247-c055-432f-bf3d-dcec30ff3699}, !- Handle
  Sizing Period Design Day 2,             !- Name
  33.2,                                   !- Maximum Dry-Bulb Temperature {C}
  10.7,                                   !- Daily Dry-Bulb Temperature Range {deltaC}
  23.8,                                   !- Humidity Indicating Conditions at Maximum Dry-Bulb {BasedOnField A3}
  99063,                                  !- Barometric Pressure {Pa}
  5.3,                                    !- Wind Speed {m/s}
  230,                                    !- Wind Direction {deg}
  1,                                      !- Sky Clearness
  0,                                      !- Rain Indicator
  0,                                      !- Snow Indicator
  21,                                     !- Day of Month
  7,                                      !- Month
  SummerDesignDay,                        !- Day Type
  0,                                      !- Daylight Saving Time Indicator
  WetBulb,                                !- Humidity Indicating Type
  ,                                       !- Humidity Indicating Day Schedule Name
  DefaultMultipliers,                     !- Dry-Bulb Temperature Range Modifier Type
  ,                                       !- Dry-Bulb Temperature Range Modifier Schedule Name
  AshraeClearSky;                         !- Solar Model Indicator

OS:ScheduleTypeLimits,
  {364edceb-bb9a-4a31-81ce-41179ddd2056}, !- Handle
  Temperature,                            !- Name
  -60,                                    !- Lower Limit Value {BasedOnField A4}
  200,                                    !- Upper Limit Value {BasedOnField A4}
  CONTINUOUS,                             !- Numeric Type
  Temperature;                            !- Unit Type

OS:DefaultScheduleSet,
  {c85d5a46-6344-4fd6-b02e-70bfe26b3e39}, !- Handle
  Default Schedules,                      !- Name
  ,                                       !- Hours of Operation Schedule Name
  {ee36317e-dbd5-4397-9f06-9cb9c8a98f3b}, !- Number of People Schedule Name
  {f2de20a6-9616-4b63-99f8-e62701627800}, !- People Activity Level Schedule Name
  {a6c203fa-5123-4762-905f-4e551c6dada6}, !- Lighting Schedule Name
  {fdd0a157-68a1-41de-bde8-17d16e0150ae}, !- Electric Equipment Schedule Name
  {986932b8-2853-436a-83a2-6921a2d78eec}, !- Gas Equipment Schedule Name
  {2c95c525-1423-4395-992f-5798b401a5b9}, !- Hot Water Equipment Schedule Name
  {e46b183e-23f0-4d9d-9e34-e943bbb377ba}, !- Infiltration Schedule Name
  ,                                       !- Steam Equipment Schedule Name
  ;                                       !- Other Equipment Schedule Name

OS:Schedule:Ruleset,
  {ee36317e-dbd5-4397-9f06-9cb9c8a98f3b}, !- Handle
  Medium Office Number of People Schedule, !- Name
  {785d90fb-e223-4892-910e-f10a1a481a1f}, !- Schedule Type Limits Name
  {cbdddefe-a3c2-4f78-aebb-ecd91c2e5cf3}, !- Default Day Schedule Name
  {784ace33-86ba-4afd-95b9-4899e7ccb023}; !- Summer Design Day Schedule Name

OS:Schedule:Day,
  {cbdddefe-a3c2-4f78-aebb-ecd91c2e5cf3}, !- Handle
  Medium Office Number of People All Other Days Schedule, !- Name
  {785d90fb-e223-4892-910e-f10a1a481a1f}, !- Schedule Type Limits Name
  ,                                       !- Interpolate to Timestep
  24,                                     !- Hour 1
  0,                                      !- Minute 1
  0;                                      !- Value Until Time 1

OS:Schedule:Day,
  {61020a50-1988-4f41-b8a3-9947e757fe63}, !- Handle
  Medium Office Number of People Summer Design Day Schedule, !- Name
  ,                                       !- Schedule Type Limits Name
  ,                                       !- Interpolate to Timestep
  6,                                      !- Hour 1
  0,                                      !- Minute 1
  0,                                      !- Value Until Time 1
  22,                                     !- Hour 2
  0,                                      !- Minute 2
  1,                                      !- Value Until Time 2
  24,                                     !- Hour 3
  0,                                      !- Minute 3
  0.05;                                   !- Value Until Time 3

OS:Schedule:Day,
  {784ace33-86ba-4afd-95b9-4899e7ccb023}, !- Handle
  Medium Office Number of People Summer Design Day Schedule 1, !- Name
  {785d90fb-e223-4892-910e-f10a1a481a1f}, !- Schedule Type Limits Name
  ,                                       !- Interpolate to Timestep
  6,                                      !- Hour 1
  0,                                      !- Minute 1
  0,                                      !- Value Until Time 1
  22,                                     !- Hour 2
  0,                                      !- Minute 2
  1,                                      !- Value Until Time 2
  24,                                     !- Hour 3
  0,                                      !- Minute 3
  0.05;                                   !- Value Until Time 3

OS:Schedule:Rule,
  {dfdaa40b-126c-4fd6-b0e6-bc1a516b0a7a}, !- Handle
  Medium Office Number of People Schedule Weekdays Rule, !- Name
  {ee36317e-dbd5-4397-9f06-9cb9c8a98f3b}, !- Schedule Ruleset Name
  1,                                      !- Rule Order
  {3609efd2-6aaf-46f7-bae6-80438b3b8afd}, !- Day Schedule Name
  ,                                       !- Apply Sunday
  Yes,                                    !- Apply Monday
  Yes,                                    !- Apply Tuesday
  Yes,                                    !- Apply Wednesday
  Yes,                                    !- Apply Thursday
  Yes;                                    !- Apply Friday

OS:Schedule:Day,
  {3609efd2-6aaf-46f7-bae6-80438b3b8afd}, !- Handle
  Medium Office Number of People Weekdays Schedule, !- Name
  {785d90fb-e223-4892-910e-f10a1a481a1f}, !- Schedule Type Limits Name
  ,                                       !- Interpolate to Timestep
  6,                                      !- Hour 1
  0,                                      !- Minute 1
  0,                                      !- Value Until Time 1
  7,                                      !- Hour 2
  0,                                      !- Minute 2
  0.1,                                    !- Value Until Time 2
  8,                                      !- Hour 3
  0,                                      !- Minute 3
  0.2,                                    !- Value Until Time 3
  12,                                     !- Hour 4
  0,                                      !- Minute 4
  0.95,                                   !- Value Until Time 4
  13,                                     !- Hour 5
  0,                                      !- Minute 5
  0.5,                                    !- Value Until Time 5
  17,                                     !- Hour 6
  0,                                      !- Minute 6
  0.95,                                   !- Value Until Time 6
  18,                                     !- Hour 7
  0,                                      !- Minute 7
  0.7,                                    !- Value Until Time 7
  20,                                     !- Hour 8
  0,                                      !- Minute 8
  0.4,                                    !- Value Until Time 8
  22,                                     !- Hour 9
  0,                                      !- Minute 9
  0.1,                                    !- Value Until Time 9
  24,                                     !- Hour 10
  0,                                      !- Minute 10
  0.05;                                   !- Value Until Time 10

OS:Schedule:Rule,
  {86c10027-2061-4d22-9760-d0a2cdb1b6fd}, !- Handle
  Medium Office Number of People Schedule Saturday Rule, !- Name
  {ee36317e-dbd5-4397-9f06-9cb9c8a98f3b}, !- Schedule Ruleset Name
  0,                                      !- Rule Order
  {e756839a-eb25-4c65-ae57-7e11e2560f88}, !- Day Schedule Name
  ,                                       !- Apply Sunday
  ,                                       !- Apply Monday
  ,                                       !- Apply Tuesday
  ,                                       !- Apply Wednesday
  ,                                       !- Apply Thursday
  ,                                       !- Apply Friday
  Yes;                                    !- Apply Saturday

OS:Schedule:Day,
  {e756839a-eb25-4c65-ae57-7e11e2560f88}, !- Handle
  Medium Office Number of People Saturday Schedule, !- Name
  {785d90fb-e223-4892-910e-f10a1a481a1f}, !- Schedule Type Limits Name
  ,                                       !- Interpolate to Timestep
  6,                                      !- Hour 1
  0,                                      !- Minute 1
  0,                                      !- Value Until Time 1
  8,                                      !- Hour 2
  0,                                      !- Minute 2
  0.1,                                    !- Value Until Time 2
  14,                                     !- Hour 3
  0,                                      !- Minute 3
  0.5,                                    !- Value Until Time 3
  17,                                     !- Hour 4
  0,                                      !- Minute 4
  0.1,                                    !- Value Until Time 4
  24,                                     !- Hour 5
  0,                                      !- Minute 5
  0;                                      !- Value Until Time 5

OS:ScheduleTypeLimits,
  {785d90fb-e223-4892-910e-f10a1a481a1f}, !- Handle
  Fractional,                             !- Name
  0,                                      !- Lower Limit Value {BasedOnField A4}
  1,                                      !- Upper Limit Value {BasedOnField A4}
  Continuous;                             !- Numeric Type

OS:Schedule:Ruleset,
  {f2de20a6-9616-4b63-99f8-e62701627800}, !- Handle
  Medium Office People Activity Level Schedule, !- Name
  {fe8b216f-a6a2-4d3f-b566-d1d0dc10868d}, !- Schedule Type Limits Name
  {d5b2951d-5976-4728-9a60-185eaef10b5a}; !- Default Day Schedule Name

OS:Schedule:Day,
  {d5b2951d-5976-4728-9a60-185eaef10b5a}, !- Handle
  Medium Office People Activity Level All Days Schedule, !- Name
  {fe8b216f-a6a2-4d3f-b566-d1d0dc10868d}, !- Schedule Type Limits Name
  ,                                       !- Interpolate to Timestep
  24,                                     !- Hour 1
  0,                                      !- Minute 1
  120;                                    !- Value Until Time 1

OS:ScheduleTypeLimits,
  {fe8b216f-a6a2-4d3f-b566-d1d0dc10868d}, !- Handle
  ActivityLevel,                          !- Name
  0,                                      !- Lower Limit Value {BasedOnField A4}
  ,                                       !- Upper Limit Value {BasedOnField A4}
  Continuous,                             !- Numeric Type
  ActivityLevel;                          !- Unit Type

OS:Schedule:Ruleset,
  {a6c203fa-5123-4762-905f-4e551c6dada6}, !- Handle
  Medium Office Lighting Schedule,        !- Name
  {785d90fb-e223-4892-910e-f10a1a481a1f}, !- Schedule Type Limits Name
  {55ef39b4-ca65-4371-bd83-2f36ae1c5e96}, !- Default Day Schedule Name
  {92c9d018-50c7-4f73-854c-a1c8047334c0}, !- Summer Design Day Schedule Name
  {01597534-6393-459b-8730-d82e4e30955a}; !- Winter Design Day Schedule Name

OS:Schedule:Day,
  {55ef39b4-ca65-4371-bd83-2f36ae1c5e96}, !- Handle
  Medium Office Lighting All Other Days Schedule, !- Name
  {785d90fb-e223-4892-910e-f10a1a481a1f}, !- Schedule Type Limits Name
  ,                                       !- Interpolate to Timestep
  24,                                     !- Hour 1
  0,                                      !- Minute 1
  0.05;                                   !- Value Until Time 1

OS:Schedule:Day,
  {73d7bf5d-efab-4547-9ce6-a6efa825d4da}, !- Handle
  Medium Office Lighting Summer Design Day Schedule, !- Name
  ,                                       !- Schedule Type Limits Name
  ,                                       !- Interpolate to Timestep
  6,                                      !- Hour 1
  0,                                      !- Minute 1
  1,                                      !- Value Until Time 1
  24,                                     !- Hour 2
  0,                                      !- Minute 2
  0;                                      !- Value Until Time 2

OS:Schedule:Day,
  {92c9d018-50c7-4f73-854c-a1c8047334c0}, !- Handle
  Medium Office Lighting Summer Design Day Schedule 1, !- Name
  {785d90fb-e223-4892-910e-f10a1a481a1f}, !- Schedule Type Limits Name
  ,                                       !- Interpolate to Timestep
  6,                                      !- Hour 1
  0,                                      !- Minute 1
  1,                                      !- Value Until Time 1
  24,                                     !- Hour 2
  0,                                      !- Minute 2
  0;                                      !- Value Until Time 2

OS:Schedule:Day,
  {332c3d66-f768-4c00-9d1d-5dd60a726a90}, !- Handle
  Medium Office Lighting Winter Design Day Schedule, !- Name
  ,                                       !- Schedule Type Limits Name
  ,                                       !- Interpolate to Timestep
  24,                                     !- Hour 1
  0,                                      !- Minute 1
  0;                                      !- Value Until Time 1

OS:Schedule:Day,
  {01597534-6393-459b-8730-d82e4e30955a}, !- Handle
  Medium Office Lighting Winter Design Day Schedule 1, !- Name
  {785d90fb-e223-4892-910e-f10a1a481a1f}, !- Schedule Type Limits Name
  ,                                       !- Interpolate to Timestep
  24,                                     !- Hour 1
  0,                                      !- Minute 1
  0;                                      !- Value Until Time 1

OS:Schedule:Rule,
  {b635e7fc-67a9-4467-85c2-224ee8cf4868}, !- Handle
  Medium Office Lighting Schedule Weekdays Rule, !- Name
  {a6c203fa-5123-4762-905f-4e551c6dada6}, !- Schedule Ruleset Name
  1,                                      !- Rule Order
  {fe99a168-5857-44c6-bc05-7b8176ba56e6}, !- Day Schedule Name
  ,                                       !- Apply Sunday
  Yes,                                    !- Apply Monday
  Yes,                                    !- Apply Tuesday
  Yes,                                    !- Apply Wednesday
  Yes,                                    !- Apply Thursday
  Yes;                                    !- Apply Friday

OS:Schedule:Day,
  {fe99a168-5857-44c6-bc05-7b8176ba56e6}, !- Handle
  Medium Office Lighting Weekdays Schedule, !- Name
  {785d90fb-e223-4892-910e-f10a1a481a1f}, !- Schedule Type Limits Name
  ,                                       !- Interpolate to Timestep
  5,                                      !- Hour 1
  0,                                      !- Minute 1
  0.05,                                   !- Value Until Time 1
  7,                                      !- Hour 2
  0,                                      !- Minute 2
  0.1,                                    !- Value Until Time 2
  8,                                      !- Hour 3
  0,                                      !- Minute 3
  0.3,                                    !- Value Until Time 3
  17,                                     !- Hour 4
  0,                                      !- Minute 4
  0.9,                                    !- Value Until Time 4
  18,                                     !- Hour 5
  0,                                      !- Minute 5
  0.7,                                    !- Value Until Time 5
  20,                                     !- Hour 6
  0,                                      !- Minute 6
  0.5,                                    !- Value Until Time 6
  22,                                     !- Hour 7
  0,                                      !- Minute 7
  0.3,                                    !- Value Until Time 7
  23,                                     !- Hour 8
  0,                                      !- Minute 8
  0.1,                                    !- Value Until Time 8
  24,                                     !- Hour 9
  0,                                      !- Minute 9
  0.05;                                   !- Value Until Time 9

OS:Schedule:Rule,
  {f11d77d9-e79c-463a-82a5-d3d2f2c4279f}, !- Handle
  Medium Office Lighting Schedule Saturday Rule, !- Name
  {a6c203fa-5123-4762-905f-4e551c6dada6}, !- Schedule Ruleset Name
  0,                                      !- Rule Order
  {0749caeb-61d7-43f9-9046-3b43fea7b4d5}, !- Day Schedule Name
  ,                                       !- Apply Sunday
  ,                                       !- Apply Monday
  ,                                       !- Apply Tuesday
  ,                                       !- Apply Wednesday
  ,                                       !- Apply Thursday
  ,                                       !- Apply Friday
  Yes;                                    !- Apply Saturday

OS:Schedule:Day,
  {0749caeb-61d7-43f9-9046-3b43fea7b4d5}, !- Handle
  Medium Office Lighting Saturday Schedule, !- Name
  {785d90fb-e223-4892-910e-f10a1a481a1f}, !- Schedule Type Limits Name
  ,                                       !- Interpolate to Timestep
  6,                                      !- Hour 1
  0,                                      !- Minute 1
  0.05,                                   !- Value Until Time 1
  8,                                      !- Hour 2
  0,                                      !- Minute 2
  0.1,                                    !- Value Until Time 2
  14,                                     !- Hour 3
  0,                                      !- Minute 3
  0.5,                                    !- Value Until Time 3
  17,                                     !- Hour 4
  0,                                      !- Minute 4
  0.15,                                   !- Value Until Time 4
  24,                                     !- Hour 5
  0,                                      !- Minute 5
  0.05;                                   !- Value Until Time 5

OS:Schedule:Ruleset,
  {fdd0a157-68a1-41de-bde8-17d16e0150ae}, !- Handle
  Medium Office Electric Equipment Schedule, !- Name
  {785d90fb-e223-4892-910e-f10a1a481a1f}, !- Schedule Type Limits Name
  {a12c44dc-c12d-4175-a32a-51d48a977b89}, !- Default Day Schedule Name
  {aaad58ef-14d6-43e2-816d-d8d003493bcb}, !- Summer Design Day Schedule Name
  {edcd667e-7909-4665-9d98-04c5d204f75a}; !- Winter Design Day Schedule Name

OS:Schedule:Day,
  {a12c44dc-c12d-4175-a32a-51d48a977b89}, !- Handle
  Medium Office Electric Equipment All Other Days Schedule, !- Name
  {785d90fb-e223-4892-910e-f10a1a481a1f}, !- Schedule Type Limits Name
  ,                                       !- Interpolate to Timestep
  24,                                     !- Hour 1
  0,                                      !- Minute 1
  0.3;                                    !- Value Until Time 1

OS:Schedule:Day,
  {c2af92f2-fb2e-447d-9e07-4c716ee67ad7}, !- Handle
  Medium Office Electric Equipment Summer Design Day Schedule, !- Name
  ,                                       !- Schedule Type Limits Name
  ,                                       !- Interpolate to Timestep
  6,                                      !- Hour 1
  0,                                      !- Minute 1
  1,                                      !- Value Until Time 1
  24,                                     !- Hour 2
  0,                                      !- Minute 2
  0;                                      !- Value Until Time 2

OS:Schedule:Day,
  {aaad58ef-14d6-43e2-816d-d8d003493bcb}, !- Handle
  Medium Office Electric Equipment Summer Design Day Schedule 1, !- Name
  {785d90fb-e223-4892-910e-f10a1a481a1f}, !- Schedule Type Limits Name
  ,                                       !- Interpolate to Timestep
  6,                                      !- Hour 1
  0,                                      !- Minute 1
  1,                                      !- Value Until Time 1
  24,                                     !- Hour 2
  0,                                      !- Minute 2
  0;                                      !- Value Until Time 2

OS:Schedule:Day,
  {92ed6bdc-24d1-46a7-9699-dac40964bbc7}, !- Handle
  Medium Office Electric Equipment Winter Design Day Schedule, !- Name
  ,                                       !- Schedule Type Limits Name
  ,                                       !- Interpolate to Timestep
  24,                                     !- Hour 1
  0,                                      !- Minute 1
  0;                                      !- Value Until Time 1

OS:Schedule:Day,
  {edcd667e-7909-4665-9d98-04c5d204f75a}, !- Handle
  Medium Office Electric Equipment Winter Design Day Schedule 1, !- Name
  {785d90fb-e223-4892-910e-f10a1a481a1f}, !- Schedule Type Limits Name
  ,                                       !- Interpolate to Timestep
  24,                                     !- Hour 1
  0,                                      !- Minute 1
  0;                                      !- Value Until Time 1

OS:Schedule:Rule,
  {d3aff18f-cce8-41f3-a0a8-a0c01c994e62}, !- Handle
  Medium Office Electric Equipment Schedule Weekdays Rule, !- Name
  {fdd0a157-68a1-41de-bde8-17d16e0150ae}, !- Schedule Ruleset Name
  1,                                      !- Rule Order
  {e44957e0-11ec-411f-a7b4-5e8fc8dca54a}, !- Day Schedule Name
  ,                                       !- Apply Sunday
  Yes,                                    !- Apply Monday
  Yes,                                    !- Apply Tuesday
  Yes,                                    !- Apply Wednesday
  Yes,                                    !- Apply Thursday
  Yes;                                    !- Apply Friday

OS:Schedule:Day,
  {e44957e0-11ec-411f-a7b4-5e8fc8dca54a}, !- Handle
  Medium Office Electric Equipment Weekdays Schedule, !- Name
  {785d90fb-e223-4892-910e-f10a1a481a1f}, !- Schedule Type Limits Name
  ,                                       !- Interpolate to Timestep
  8,                                      !- Hour 1
  0,                                      !- Minute 1
  0.4,                                    !- Value Until Time 1
  12,                                     !- Hour 2
  0,                                      !- Minute 2
  0.9,                                    !- Value Until Time 2
  13,                                     !- Hour 3
  0,                                      !- Minute 3
  0.8,                                    !- Value Until Time 3
  17,                                     !- Hour 4
  0,                                      !- Minute 4
  0.9,                                    !- Value Until Time 4
  18,                                     !- Hour 5
  0,                                      !- Minute 5
  0.8,                                    !- Value Until Time 5
  20,                                     !- Hour 6
  0,                                      !- Minute 6
  0.6,                                    !- Value Until Time 6
  22,                                     !- Hour 7
  0,                                      !- Minute 7
  0.5,                                    !- Value Until Time 7
  24,                                     !- Hour 8
  0,                                      !- Minute 8
  0.4;                                    !- Value Until Time 8

OS:Schedule:Rule,
  {dc253382-eddd-4124-a1a9-a0ed54041d1f}, !- Handle
  Medium Office Electric Equipment Schedule Saturday Rule, !- Name
  {fdd0a157-68a1-41de-bde8-17d16e0150ae}, !- Schedule Ruleset Name
  0,                                      !- Rule Order
  {c090132f-d50a-4948-bdd3-657eae278565}, !- Day Schedule Name
  ,                                       !- Apply Sunday
  ,                                       !- Apply Monday