
OS:Version,
  {6e598641-ac1e-4fb6-a97c-44a6943602f7}, !- Handle
  1.3.5;                                  !- Version Identifier

OS:SimulationControl,
  {7535ebc4-9fdc-4986-9454-6aff91588627}, !- Handle
  Yes,                                    !- Do Zone Sizing Calculation
  Yes,                                    !- Do System Sizing Calculation
  ,                                       !- Do Plant Sizing Calculation
  No,                                     !- Run Simulation for Sizing Periods
  Yes;                                    !- Run Simulation for Weather File Run Periods

OS:Timestep,
  {e2206e03-026a-4bc2-b16f-1b298297b882}, !- Handle
  6;                                      !- Number of Timesteps per Hour

OS:RunPeriod,
  {161b3098-3981-48f9-a3dd-552b112760b2}, !- Handle
  Run Period 1,                           !- Name
  1,                                      !- Begin Month
  1,                                      !- Begin Day of Month
  12,                                     !- End Month
  31,                                     !- End Day of Month
  No,                                     !- Use Weather File Holidays and Special Days
  No,                                     !- Use Weather File Daylight Saving Period
  No,                                     !- Apply Weekend Holiday Rule
  Yes,                                    !- Use Weather File Rain Indicators
  Yes,                                    !- Use Weather File Snow Indicators
  1;                                      !- Number of Times Runperiod to be Repeated

OS:SurfaceConvectionAlgorithm:Inside,
  {ecce8b36-52d2-4bf9-9e00-fd5d38bf6023}, !- Handle
  TARP;                                   !- Algorithm

OS:SurfaceConvectionAlgorithm:Outside,
  {1e8531ef-e677-4571-a145-87e14d901a8c}, !- Handle
  DOE-2;                                  !- Algorithm

OS:HeatBalanceAlgorithm,
  {d33bcbc2-8b2d-4ea1-8916-8195e0f0d5f4}, !- Handle
  ConductionTransferFunction,             !- Algorithm
  200;                                    !- Surface Temperature Upper Limit {F}

OS:ZoneAirHeatBalanceAlgorithm,
  {2ce87309-a9cc-418a-9f7f-3ca231cf042a}, !- Handle
  AnalyticalSolution;                     !- Algorithm

OS:ConvergenceLimits,
  {6039c48c-ac5b-4f72-91e4-18bbc6d04c52}; !- Handle

OS:ShadowCalculation,
  {30add4cf-4f88-49ed-bdfa-c68157d3ae7f}, !- Handle
  7,                                      !- Calculation Frequency
  15000;                                  !- Maximum Figures in Shadow Overlap Calculations

OS:Site,
  {a4b5c759-3c55-4d6a-a97f-62eccfdf3c62}, !- Handle
  Site 1,                                 !- Name
  41.77,                                  !- Latitude {deg}
  -87.75,                                 !- Longitude {deg}
  -6,                                     !- Time Zone {hr}
  190,                                    !- Elevation {m}
  ;                                       !- Terrain

OS:Site:GroundTemperature:BuildingSurface,
  {7a125e59-4c11-4d34-9f53-a74f77602ed0}, !- Handle
  19.527,                                 !- January Ground Temperature {C}
  19.502,                                 !- February Ground Temperature {C}
  19.536,                                 !- March Ground Temperature {C}
  19.598,                                 !- April Ground Temperature {C}
  20.002,                                 !- May Ground Temperature {C}
  21.64,                                  !- June Ground Temperature {C}
  22.225,                                 !- July Ground Temperature {C}
  22.375,                                 !- August Ground Temperature {C}
  21.449,                                 !- September Ground Temperature {C}
  20.121,                                 !- October Ground Temperature {C}
  19.802,                                 !- November Ground Temperature {C}
  19.633;                                 !- December Ground Temperature {C}

OS:Site:WaterMainsTemperature,
  {cdd40bff-6e3a-4e2c-9cb5-f9214a904bd8}, !- Handle
  Correlation,                            !- Calculation Method
  ,                                       !- Temperature Schedule Name
  9.69,                                   !- Annual Average Outdoor Air Temperature {C}
  28.1;                                   !- Maximum Difference In Monthly Average Outdoor Air Temperatures {deltaC}

OS:SizingPeriod:DesignDay,
  {fd186385-8cb8-4e07-8348-f4132acb3d52}, !- Handle
  Sizing Period Design Day 1,             !- Name
  -20.6,                                  !- Maximum Dry-Bulb Temperature {C}
  0,                                      !- Daily Dry-Bulb Temperature Range {deltaC}
  -20.6,                                  !- Humidity Indicating Conditions at Maximum Dry-Bulb {BasedOnField A3}
  99063,                                  !- Barometric Pressure {Pa}
  4.9,                                    !- Wind Speed {m/s}
  270,                                    !- Wind Direction {deg}
  0,                                      !- Sky Clearness
  0,                                      !- Rain Indicator
  0,                                      !- Snow Indicator
  21,                                     !- Day of Month
  1,                                      !- Month
  WinterDesignDay,                        !- Day Type
  0,                                      !- Daylight Saving Time Indicator
  WetBulb,                                !- Humidity Indicating Type
  ,                                       !- Humidity Indicating Day Schedule Name
  DefaultMultipliers,                     !- Dry-Bulb Temperature Range Modifier Type
  ,                                       !- Dry-Bulb Temperature Range Modifier Schedule Name
  AshraeClearSky;                         !- Solar Model Indicator

OS:SizingPeriod:DesignDay,
  {39477f38-5b8b-43bc-bea0-6fb5a3bd2e8f}, !- Handle
  Sizing Period Design Day 2,             !- Name
  33.2,                                   !- Maximum Dry-Bulb Temperature {C}
  10.7,                                   !- Daily Dry-Bulb Temperature Range {deltaC}
  23.8,                                   !- Humidity Indicating Conditions at Maximum Dry-Bulb {BasedOnField A3}
  99063,                                  !- Barometric Pressure {Pa}
  5.3,                                    !- Wind Speed {m/s}
  230,                                    !- Wind Direction {deg}
  1,                                      !- Sky Clearness
  0,                                      !- Rain Indicator
  0,                                      !- Snow Indicator
  21,                                     !- Day of Month
  7,                                      !- Month
  SummerDesignDay,                        !- Day Type
  0,                                      !- Daylight Saving Time Indicator
  WetBulb,                                !- Humidity Indicating Type
  ,                                       !- Humidity Indicating Day Schedule Name
  DefaultMultipliers,                     !- Dry-Bulb Temperature Range Modifier Type
  ,                                       !- Dry-Bulb Temperature Range Modifier Schedule Name
  AshraeClearSky;                         !- Solar Model Indicator

OS:ScheduleTypeLimits,
  {0190cf8a-6fe8-4ea6-a71e-5fbc9bd8f011}, !- Handle
  Temperature,                            !- Name
  -60,                                    !- Lower Limit Value {BasedOnField A4}
  200,                                    !- Upper Limit Value {BasedOnField A4}
  CONTINUOUS,                             !- Numeric Type
  Temperature;                            !- Unit Type

OS:DefaultScheduleSet,
  {601bc027-030e-47dc-a216-6f220c70d912}, !- Handle
  Default Schedules,                      !- Name
  ,                                       !- Hours of Operation Schedule Name
  {fac5d9f1-3d99-40e2-a231-827520861958}, !- Number of People Schedule Name
  {623d3138-dee8-41e3-93eb-28d1f9a89ddc}, !- People Activity Level Schedule Name
  {7da372f1-8f5f-4b9c-9771-b5f0da6d7a22}, !- Lighting Schedule Name
  {9a895e33-643e-49d0-ba41-14d4ac2b7f1e}, !- Electric Equipment Schedule Name
  {84a7eba2-a168-4872-8b37-7c521fe80639}, !- Gas Equipment Schedule Name
  {9f6940e6-fa32-45f2-902d-a9192d8ee78e}, !- Hot Water Equipment Schedule Name
  {ce12d530-529f-4db2-bf9b-6e5d648bc420}, !- Infiltration Schedule Name
  ,                                       !- Steam Equipment Schedule Name
  ;                                       !- Other Equipment Schedule Name

OS:Schedule:Ruleset,
  {fac5d9f1-3d99-40e2-a231-827520861958}, !- Handle
  Medium Office Number of People Schedule, !- Name
  {ba7bc93f-a3f9-4582-8a36-c87999a48212}, !- Schedule Type Limits Name
  {62c07f00-d223-4269-9801-7bedc7cf2f3f}, !- Default Day Schedule Name
  {376ad320-3279-40db-9c89-a41d54491617}; !- Summer Design Day Schedule Name

OS:Schedule:Day,
  {62c07f00-d223-4269-9801-7bedc7cf2f3f}, !- Handle
  Medium Office Number of People All Other Days Schedule, !- Name
  {ba7bc93f-a3f9-4582-8a36-c87999a48212}, !- Schedule Type Limits Name
  ,                                       !- Interpolate to Timestep
  24,                                     !- Hour 1
  0,                                      !- Minute 1
  0;                                      !- Value Until Time 1

OS:Schedule:Day,
  {968c56d8-c823-4a88-9ff9-57c6a94d97b0}, !- Handle
  Medium Office Number of People Summer Design Day Schedule, !- Name
  ,                                       !- Schedule Type Limits Name
  ,                                       !- Interpolate to Timestep
  6,                                      !- Hour 1
  0,                                      !- Minute 1
  0,                                      !- Value Until Time 1
  22,                                     !- Hour 2
  0,                                      !- Minute 2
  1,                                      !- Value Until Time 2
  24,                                     !- Hour 3
  0,                                      !- Minute 3
  0.05;                                   !- Value Until Time 3

OS:Schedule:Day,
  {376ad320-3279-40db-9c89-a41d54491617}, !- Handle
  Medium Office Number of People Summer Design Day Schedule 1, !- Name
  {ba7bc93f-a3f9-4582-8a36-c87999a48212}, !- Schedule Type Limits Name
  ,                                       !- Interpolate to Timestep
  6,                                      !- Hour 1
  0,                                      !- Minute 1
  0,                                      !- Value Until Time 1
  22,                                     !- Hour 2
  0,                                      !- Minute 2
  1,                                      !- Value Until Time 2
  24,                                     !- Hour 3
  0,                                      !- Minute 3
  0.05;                                   !- Value Until Time 3

OS:Schedule:Rule,
  {6501cd9c-cfd5-4d08-b404-a6f75c6ce67f}, !- Handle
  Medium Office Number of People Schedule Weekdays Rule, !- Name
  {fac5d9f1-3d99-40e2-a231-827520861958}, !- Schedule Ruleset Name
  1,                                      !- Rule Order
  {980df20b-1601-4792-8b11-509ac9a2f14d}, !- Day Schedule Name
  ,                                       !- Apply Sunday
  Yes,                                    !- Apply Monday
  Yes,                                    !- Apply Tuesday
  Yes,                                    !- Apply Wednesday
  Yes,                                    !- Apply Thursday
  Yes;                                    !- Apply Friday

OS:Schedule:Day,
  {980df20b-1601-4792-8b11-509ac9a2f14d}, !- Handle
  Medium Office Number of People Weekdays Schedule, !- Name
  {ba7bc93f-a3f9-4582-8a36-c87999a48212}, !- Schedule Type Limits Name
  ,                                       !- Interpolate to Timestep
  6,                                      !- Hour 1
  0,                                      !- Minute 1
  0,                                      !- Value Until Time 1
  7,                                      !- Hour 2
  0,                                      !- Minute 2
  0.1,                                    !- Value Until Time 2
  8,                                      !- Hour 3
  0,                                      !- Minute 3
  0.2,                                    !- Value Until Time 3
  12,                                     !- Hour 4
  0,                                      !- Minute 4
  0.95,                                   !- Value Until Time 4
  13,                                     !- Hour 5
  0,                                      !- Minute 5
  0.5,                                    !- Value Until Time 5
  17,                                     !- Hour 6
  0,                                      !- Minute 6
  0.95,                                   !- Value Until Time 6
  18,                                     !- Hour 7
  0,                                      !- Minute 7
  0.7,                                    !- Value Until Time 7
  20,                                     !- Hour 8
  0,                                      !- Minute 8
  0.4,                                    !- Value Until Time 8
  22,                                     !- Hour 9
  0,                                      !- Minute 9
  0.1,                                    !- Value Until Time 9
  24,                                     !- Hour 10
  0,                                      !- Minute 10
  0.05;                                   !- Value Until Time 10

OS:Schedule:Rule,
  {11620c84-a96b-4d3b-8265-eecc2bd4e301}, !- Handle
  Medium Office Number of People Schedule Saturday Rule, !- Name
  {fac5d9f1-3d99-40e2-a231-827520861958}, !- Schedule Ruleset Name
  0,                                      !- Rule Order
  {23db17cf-05d6-4ba1-8e23-4a8e7ccf92e7}, !- Day Schedule Name
  ,                                       !- Apply Sunday
  ,                                       !- Apply Monday
  ,                                       !- Apply Tuesday
  ,                                       !- Apply Wednesday
  ,                                       !- Apply Thursday
  ,                                       !- Apply Friday
  Yes;                                    !- Apply Saturday

OS:Schedule:Day,
  {23db17cf-05d6-4ba1-8e23-4a8e7ccf92e7}, !- Handle
  Medium Office Number of People Saturday Schedule, !- Name
  {ba7bc93f-a3f9-4582-8a36-c87999a48212}, !- Schedule Type Limits Name
  ,                                       !- Interpolate to Timestep
  6,                                      !- Hour 1
  0,                                      !- Minute 1
  0,                                      !- Value Until Time 1
  8,                                      !- Hour 2
  0,                                      !- Minute 2
  0.1,                                    !- Value Until Time 2
  14,                                     !- Hour 3
  0,                                      !- Minute 3
  0.5,                                    !- Value Until Time 3
  17,                                     !- Hour 4
  0,                                      !- Minute 4
  0.1,                                    !- Value Until Time 4
  24,                                     !- Hour 5
  0,                                      !- Minute 5
  0;                                      !- Value Until Time 5

OS:ScheduleTypeLimits,
  {ba7bc93f-a3f9-4582-8a36-c87999a48212}, !- Handle
  Fractional,                             !- Name
  0,                                      !- Lower Limit Value {BasedOnField A4}
  1,                                      !- Upper Limit Value {BasedOnField A4}
  Continuous;                             !- Numeric Type

OS:Schedule:Ruleset,
  {623d3138-dee8-41e3-93eb-28d1f9a89ddc}, !- Handle
  Medium Office People Activity Level Schedule, !- Name
  {3790ddf8-2916-4901-85e1-c5d9293e9b04}, !- Schedule Type Limits Name
  {1a6a9083-3534-4d6c-a8aa-c9c9f64fc82b}; !- Default Day Schedule Name

OS:Schedule:Day,
  {1a6a9083-3534-4d6c-a8aa-c9c9f64fc82b}, !- Handle
  Medium Office People Activity Level All Days Schedule, !- Name
  {3790ddf8-2916-4901-85e1-c5d9293e9b04}, !- Schedule Type Limits Name
  ,                                       !- Interpolate to Timestep
  24,                                     !- Hour 1
  0,                                      !- Minute 1
  120;                                    !- Value Until Time 1

OS:ScheduleTypeLimits,
  {3790ddf8-2916-4901-85e1-c5d9293e9b04}, !- Handle
  ActivityLevel,                          !- Name
  0,                                      !- Lower Limit Value {BasedOnField A4}
  ,                                       !- Upper Limit Value {BasedOnField A4}
  Continuous,                             !- Numeric Type
  ActivityLevel;                          !- Unit Type

OS:Schedule:Ruleset,
  {7da372f1-8f5f-4b9c-9771-b5f0da6d7a22}, !- Handle
  Medium Office Lighting Schedule,        !- Name
  {ba7bc93f-a3f9-4582-8a36-c87999a48212}, !- Schedule Type Limits Name
  {000eccca-a031-4c96-a3a6-1866c6bbf669}, !- Default Day Schedule Name
  {b997cd83-a7b2-45e5-a087-90b824afcebb}, !- Summer Design Day Schedule Name
  {b4b49df2-76c5-49cc-947d-938666d698c1}; !- Winter Design Day Schedule Name

OS:Schedule:Day,
  {000eccca-a031-4c96-a3a6-1866c6bbf669}, !- Handle
  Medium Office Lighting All Other Days Schedule, !- Name
  {ba7bc93f-a3f9-4582-8a36-c87999a48212}, !- Schedule Type Limits Name
  ,                                       !- Interpolate to Timestep
  24,                                     !- Hour 1
  0,                                      !- Minute 1
  0.05;                                   !- Value Until Time 1

OS:Schedule:Day,
  {62e574e9-acc0-43a2-97af-01793edb3a9a}, !- Handle
  Medium Office Lighting Summer Design Day Schedule, !- Name
  ,                                       !- Schedule Type Limits Name
  ,                                       !- Interpolate to Timestep
  6,                                      !- Hour 1
  0,                                      !- Minute 1
  1,                                      !- Value Until Time 1
  24,                                     !- Hour 2
  0,                                      !- Minute 2
  0;                                      !- Value Until Time 2

OS:Schedule:Day,
  {b997cd83-a7b2-45e5-a087-90b824afcebb}, !- Handle
  Medium Office Lighting Summer Design Day Schedule 1, !- Name
  {ba7bc93f-a3f9-4582-8a36-c87999a48212}, !- Schedule Type Limits Name
  ,                                       !- Interpolate to Timestep
  6,                                      !- Hour 1
  0,                                      !- Minute 1
  1,                                      !- Value Until Time 1
  24,                                     !- Hour 2
  0,                                      !- Minute 2
  0;                                      !- Value Until Time 2

OS:Schedule:Day,
  {88049afa-71b8-4339-ae1c-b96052e9677f}, !- Handle
  Medium Office Lighting Winter Design Day Schedule, !- Name
  ,                                       !- Schedule Type Limits Name
  ,                                       !- Interpolate to Timestep
  24,                                     !- Hour 1
  0,                                      !- Minute 1
  0;                                      !- Value Until Time 1

OS:Schedule:Day,
  {b4b49df2-76c5-49cc-947d-938666d698c1}, !- Handle
  Medium Office Lighting Winter Design Day Schedule 1, !- Name
  {ba7bc93f-a3f9-4582-8a36-c87999a48212}, !- Schedule Type Limits Name
  ,                                       !- Interpolate to Timestep
  24,                                     !- Hour 1
  0,                                      !- Minute 1
  0;                                      !- Value Until Time 1

OS:Schedule:Rule,
  {dc79784f-a236-45e2-a075-7e79b3681706}, !- Handle
  Medium Office Lighting Schedule Weekdays Rule, !- Name
  {7da372f1-8f5f-4b9c-9771-b5f0da6d7a22}, !- Schedule Ruleset Name
  1,                                      !- Rule Order
  {0178b972-8986-4fd2-a548-2553e2b6efc6}, !- Day Schedule Name
  ,                                       !- Apply Sunday
  Yes,                                    !- Apply Monday
  Yes,                                    !- Apply Tuesday
  Yes,                                    !- Apply Wednesday
  Yes,                                    !- Apply Thursday
  Yes;                                    !- Apply Friday

OS:Schedule:Day,
  {0178b972-8986-4fd2-a548-2553e2b6efc6}, !- Handle
  Medium Office Lighting Weekdays Schedule, !- Name
  {ba7bc93f-a3f9-4582-8a36-c87999a48212}, !- Schedule Type Limits Name
  ,                                       !- Interpolate to Timestep
  5,                                      !- Hour 1
  0,                                      !- Minute 1
  0.05,                                   !- Value Until Time 1
  7,                                      !- Hour 2
  0,                                      !- Minute 2
  0.1,                                    !- Value Until Time 2
  8,                                      !- Hour 3
  0,                                      !- Minute 3
  0.3,                                    !- Value Until Time 3
  17,                                     !- Hour 4
  0,                                      !- Minute 4
  0.9,                                    !- Value Until Time 4
  18,                                     !- Hour 5
  0,                                      !- Minute 5
  0.7,                                    !- Value Until Time 5
  20,                                     !- Hour 6
  0,                                      !- Minute 6
  0.5,                                    !- Value Until Time 6
  22,                                     !- Hour 7
  0,                                      !- Minute 7
  0.3,                                    !- Value Until Time 7
  23,                                     !- Hour 8
  0,                                      !- Minute 8
  0.1,                                    !- Value Until Time 8
  24,                                     !- Hour 9
  0,                                      !- Minute 9
  0.05;                                   !- Value Until Time 9

OS:Schedule:Rule,
  {ca7559d1-c70c-4072-b10e-c10144fd621f}, !- Handle
  Medium Office Lighting Schedule Saturday Rule, !- Name
  {7da372f1-8f5f-4b9c-9771-b5f0da6d7a22}, !- Schedule Ruleset Name
  0,                                      !- Rule Order
  {08f8c069-734c-490c-858c-af6f8157f06a}, !- Day Schedule Name
  ,                                       !- Apply Sunday
  ,                                       !- Apply Monday
  ,                                       !- Apply Tuesday
  ,                                       !- Apply Wednesday
  ,                                       !- Apply Thursday
  ,                                       !- Apply Friday
  Yes;                                    !- Apply Saturday

OS:Schedule:Day,
  {08f8c069-734c-490c-858c-af6f8157f06a}, !- Handle
  Medium Office Lighting Saturday Schedule, !- Name
  {ba7bc93f-a3f9-4582-8a36-c87999a48212}, !- Schedule Type Limits Name
  ,                                       !- Interpolate to Timestep
  6,                                      !- Hour 1
  0,                                      !- Minute 1
  0.05,                                   !- Value Until Time 1
  8,                                      !- Hour 2
  0,                                      !- Minute 2
  0.1,                                    !- Value Until Time 2
  14,                                     !- Hour 3
  0,                                      !- Minute 3
  0.5,                                    !- Value Until Time 3
  17,                                     !- Hour 4
  0,                                      !- Minute 4
  0.15,                                   !- Value Until Time 4
  24,                                     !- Hour 5
  0,                                      !- Minute 5
  0.05;                                   !- Value Until Time 5

OS:Schedule:Ruleset,
  {9a895e33-643e-49d0-ba41-14d4ac2b7f1e}, !- Handle
  Medium Office Electric Equipment Schedule, !- Name
  {ba7bc93f-a3f9-4582-8a36-c87999a48212}, !- Schedule Type Limits Name
  {c9e39c4b-0ce7-4c7f-8d12-b653ff61ba42}, !- Default Day Schedule Name
  {b7f77bb3-7cf9-47ef-9c3b-a237dcd9988e}, !- Summer Design Day Schedule Name
  {dc39363b-8251-46b1-b9b9-0f7ba6808f93}; !- Winter Design Day Schedule Name

OS:Schedule:Day,
  {c9e39c4b-0ce7-4c7f-8d12-b653ff61ba42}, !- Handle
  Medium Office Electric Equipment All Other Days Schedule, !- Name
  {ba7bc93f-a3f9-4582-8a36-c87999a48212}, !- Schedule Type Limits Name
  ,                                       !- Interpolate to Timestep
  24,                                     !- Hour 1
  0,                                      !- Minute 1
  0.3;                                    !- Value Until Time 1

OS:Schedule:Day,
  {5a1462a3-8e68-49c4-81ef-31e60f166774}, !- Handle
  Medium Office Electric Equipment Summer Design Day Schedule, !- Name
  ,                                       !- Schedule Type Limits Name
  ,                                       !- Interpolate to Timestep
  6,                                      !- Hour 1
  0,                                      !- Minute 1
  1,                                      !- Value Until Time 1
  24,                                     !- Hour 2
  0,                                      !- Minute 2
  0;                                      !- Value Until Time 2

OS:Schedule:Day,
  {b7f77bb3-7cf9-47ef-9c3b-a237dcd9988e}, !- Handle
  Medium Office Electric Equipment Summer Design Day Schedule 1, !- Name
  {ba7bc93f-a3f9-4582-8a36-c87999a48212}, !- Schedule Type Limits Name
  ,                                       !- Interpolate to Timestep
  6,                                      !- Hour 1
  0,                                      !- Minute 1
  1,                                      !- Value Until Time 1
  24,                                     !- Hour 2
  0,                                      !- Minute 2
  0;                                      !- Value Until Time 2

OS:Schedule:Day,
  {0e1df075-205e-4933-89f4-b24bd148fb87}, !- Handle
  Medium Office Electric Equipment Winter Design Day Schedule, !- Name
  ,                                       !- Schedule Type Limits Name
  ,                                       !- Interpolate to Timestep
  24,                                     !- Hour 1
  0,                                      !- Minute 1
  0;                                      !- Value Until Time 1

OS:Schedule:Day,
  {dc39363b-8251-46b1-b9b9-0f7ba6808f93}, !- Handle
  Medium Office Electric Equipment Winter Design Day Schedule 1, !- Name
  {ba7bc93f-a3f9-4582-8a36-c87999a48212}, !- Schedule Type Limits Name
  ,                                       !- Interpolate to Timestep
  24,                                     !- Hour 1
  0,                                      !- Minute 1
  0;                                      !- Value Until Time 1

OS:Schedule:Rule,
  {c3d166c6-8dcc-463f-b5a2-fa0a5683f6f7}, !- Handle
  Medium Office Electric Equipment Schedule Weekdays Rule, !- Name
  {9a895e33-643e-49d0-ba41-14d4ac2b7f1e}, !- Schedule Ruleset Name
  1,                                      !- Rule Order
  {f0cc1c43-1749-45cc-8a98-d2e82803b9d9}, !- Day Schedule Name
  ,                                       !- Apply Sunday
  Yes,                                    !- Apply Monday
  Yes,                                    !- Apply Tuesday
  Yes,                                    !- Apply Wednesday
  Yes,                                    !- Apply Thursday
  Yes;                                    !- Apply Friday

OS:Schedule:Day,
  {f0cc1c43-1749-45cc-8a98-d2e82803b9d9}, !- Handle
  Medium Office Electric Equipment Weekdays Schedule, !- Name
  {ba7bc93f-a3f9-4582-8a36-c87999a48212}, !- Schedule Type Limits Name
  ,                                       !- Interpolate to Timestep
  8,                                      !- Hour 1
  0,                                      !- Minute 1
  0.4,                                    !- Value Until Time 1
  12,                                     !- Hour 2
  0,                                      !- Minute 2
  0.9,                                    !- Value Until Time 2
  13,                                     !- Hour 3
  0,                                      !- Minute 3
  0.8,                                    !- Value Until Time 3
  17,                                     !- Hour 4
  0,                                      !- Minute 4
  0.9,                                    !- Value Until Time 4
  18,                                     !- Hour 5
  0,                                      !- Minute 5
  0.8,                                    !- Value Until Time 5
  20,                                     !- Hour 6
  0,                                      !- Minute 6
  0.6,                                    !- Value Until Time 6
  22,                                     !- Hour 7
  0,                                      !- Minute 7
  0.5,                                    !- Value Until Time 7
  24,                                     !- Hour 8
  0,                                      !- Minute 8
  0.4;                                    !- Value Until Time 8

OS:Schedule:Rule,
  {90467fec-db6b-4e88-b537-e3131f501feb}, !- Handle
  Medium Office Electric Equipment Schedule Saturday Rule, !- Name
  {9a895e33-643e-49d0-ba41-14d4ac2b7f1e}, !- Schedule Ruleset Name
  0,                                      !- Rule Order
  {c7db630b-63a1-4900-9efe-d4d58c982a2a}, !- Day Schedule Name
  ,                                       !- Apply Sunday
  ,                                       !- Apply Monday
  ,                                       !- Apply Tuesday
  ,                                       !- Apply Wednesday