
OS:Version,
  {bc93526e-1c55-48ea-ad17-941ce855dde0}, !- Handle
  1.1.3;                                  !- Version Identifier

OS:Construction,
  {84ca4aaa-3936-48d2-818a-0fa528422723}, !- Handle
  Slab,                                   !- Name
  ,                                       !- Surface Rendering Name
  {63f87334-4bdd-41c5-b706-cf06d9801e29}, !- Layer 1
  {95a9dc95-f218-4b8c-b3e7-599ca84b49a5}; !- Layer 2

OS:Material,
  {63f87334-4bdd-41c5-b706-cf06d9801e29}, !- Handle
  MAT-CC05 8 HW CONCRETE,                 !- Name
  Rough,                                  !- Roughness
  0.2032,                                 !- Thickness {m}
  1.311,                                  !- Conductivity {W/m-K}
  2240,                                   !- Density {kg/m3}
  836.8,                                  !- Specific Heat {J/kg-K}
  0.9,                                    !- Thermal Absorptance
  0.7,                                    !- Solar Absorptance
  0.7;                                    !- Visible Absorptance

OS:Material:NoMass,
  {95a9dc95-f218-4b8c-b3e7-599ca84b49a5}, !- Handle
  CP02 CARPET PAD,                        !- Name
  VeryRough,                              !- Roughness
  0.2165,                                 !- Thermal Resistance {m2-K/W}
  0.9,                                    !- Thermal Absorptance
  0.7,                                    !- Solar Absorptance
  0.8;                                    !- Visible Absorptance

OS:ComponentData,
  {c1be71ae-6e18-447f-bd2f-42dec729c662}, !- Handle
  Component Data 1,                       !- Name
  {0ab67bdc-f633-4662-a353-b1232ae5065f}, !- UUID
  {f5dbb372-f3e6-4d58-b42e-a4343214267d}, !- Version UUID
  1386091455,                             !- Creation Timestamp
  1386091455,                             !- Version Timestamp
  {84ca4aaa-3936-48d2-818a-0fa528422723}, !- Name of Object 1
  {63f87334-4bdd-41c5-b706-cf06d9801e29}, !- Name of Object 2
  {95a9dc95-f218-4b8c-b3e7-599ca84b49a5}; !- Name of Object 3

