
OS:Version,
  {0a1f6e43-e321-4dbe-a6f4-e75e6affa39a}, !- Handle
  1.7.5;                                  !- Version Identifier

OS:SimulationControl,
  {96b3ea06-b00e-408c-bc02-08de4dc14228}, !- Handle
  Yes,                                    !- Do Zone Sizing Calculation
  Yes,                                    !- Do System Sizing Calculation
  ,                                       !- Do Plant Sizing Calculation
  No,                                     !- Run Simulation for Sizing Periods
  Yes;                                    !- Run Simulation for Weather File Run Periods

OS:Timestep,
  {f4b74d98-767e-403e-872e-59d84298a875}, !- Handle
  6;                                      !- Number of Timesteps per Hour

OS:RunPeriod,
  {8e1ccab8-5aef-4e55-9834-8f85b5384669}, !- Handle
  Run Period 1,                           !- Name
  1,                                      !- Begin Month
  1,                                      !- Begin Day of Month
  12,                                     !- End Month
  31,                                     !- End Day of Month
  No,                                     !- Use Weather File Holidays and Special Days
  No,                                     !- Use Weather File Daylight Saving Period
  No,                                     !- Apply Weekend Holiday Rule
  Yes,                                    !- Use Weather File Rain Indicators
  Yes,                                    !- Use Weather File Snow Indicators
  1;                                      !- Number of Times Runperiod to be Repeated

OS:SurfaceConvectionAlgorithm:Inside,
  {a92d2e4b-409c-4cf0-b5df-ca546ff9e0a6}, !- Handle
  TARP;                                   !- Algorithm

OS:SurfaceConvectionAlgorithm:Outside,
  {a8f47223-aac4-4d94-a436-6dc7f8b46ec1}, !- Handle
  DOE-2;                                  !- Algorithm

OS:HeatBalanceAlgorithm,
  {6b00130d-aaa6-49f3-bcca-d3fd980d12e4}, !- Handle
  ConductionTransferFunction,             !- Algorithm
  200;                                    !- Surface Temperature Upper Limit {F}

OS:ZoneAirHeatBalanceAlgorithm,
  {25ced659-4ff6-4714-bd77-16030115f5dc}, !- Handle
  AnalyticalSolution;                     !- Algorithm

OS:ConvergenceLimits,
  {64b7fa0e-f1b0-48bd-8ff0-d2ceb67282cc}; !- Handle

OS:ShadowCalculation,
  {6282b80a-241b-4d0a-a41f-b018c89dcb04}, !- Handle
  7,                                      !- Calculation Frequency
  15000;                                  !- Maximum Figures in Shadow Overlap Calculations

OS:Site,
  {f413930a-a45a-4353-aed8-a7ef62900060}, !- Handle
  Site 1,                                 !- Name
  41.77,                                  !- Latitude {deg}
  -87.75,                                 !- Longitude {deg}
  -6,                                     !- Time Zone {hr}
  190,                                    !- Elevation {m}
  ;                                       !- Terrain

OS:Site:GroundTemperature:BuildingSurface,
  {5a82436e-191e-48c7-9dde-a16823e45993}, !- Handle
  19.527,                                 !- January Ground Temperature {C}
  19.502,                                 !- February Ground Temperature {C}
  19.536,                                 !- March Ground Temperature {C}
  19.598,                                 !- April Ground Temperature {C}
  20.002,                                 !- May Ground Temperature {C}
  21.64,                                  !- June Ground Temperature {C}
  22.225,                                 !- July Ground Temperature {C}
  22.375,                                 !- August Ground Temperature {C}
  21.449,                                 !- September Ground Temperature {C}
  20.121,                                 !- October Ground Temperature {C}
  19.802,                                 !- November Ground Temperature {C}
  19.633;                                 !- December Ground Temperature {C}

OS:Site:WaterMainsTemperature,
  {6f73ed26-48b8-45ed-b3e2-46f4a524d87c}, !- Handle
  Correlation,                            !- Calculation Method
  ,                                       !- Temperature Schedule Name
  9.69,                                   !- Annual Average Outdoor Air Temperature {C}
  28.1;                                   !- Maximum Difference In Monthly Average Outdoor Air Temperatures {deltaC}

OS:SizingPeriod:DesignDay,
  {25175272-314d-498e-9502-c1d396fe53e7}, !- Handle
  Sizing Period Design Day 1,             !- Name
  -20.6,                                  !- Maximum Dry-Bulb Temperature {C}
  0,                                      !- Daily Dry-Bulb Temperature Range {deltaC}
  -20.6,                                  !- Humidity Indicating Conditions at Maximum Dry-Bulb {BasedOnField A3}
  99063,                                  !- Barometric Pressure {Pa}
  4.9,                                    !- Wind Speed {m/s}
  270,                                    !- Wind Direction {deg}
  0,                                      !- Sky Clearness
  0,                                      !- Rain Indicator
  0,                                      !- Snow Indicator
  21,                                     !- Day of Month
  1,                                      !- Month
  WinterDesignDay,                        !- Day Type
  0,                                      !- Daylight Saving Time Indicator
  WetBulb,                                !- Humidity Indicating Type
  ,                                       !- Humidity Indicating Day Schedule Name
  DefaultMultipliers,                     !- Dry-Bulb Temperature Range Modifier Type
  ,                                       !- Dry-Bulb Temperature Range Modifier Schedule Name
  AshraeClearSky;                         !- Solar Model Indicator

OS:SizingPeriod:DesignDay,
  {0a02dbf4-b075-410b-aa01-658855f934dd}, !- Handle
  Sizing Period Design Day 2,             !- Name
  33.2,                                   !- Maximum Dry-Bulb Temperature {C}
  10.7,                                   !- Daily Dry-Bulb Temperature Range {deltaC}
  23.8,                                   !- Humidity Indicating Conditions at Maximum Dry-Bulb {BasedOnField A3}
  99063,                                  !- Barometric Pressure {Pa}
  5.3,                                    !- Wind Speed {m/s}
  230,                                    !- Wind Direction {deg}
  1,                                      !- Sky Clearness
  0,                                      !- Rain Indicator
  0,                                      !- Snow Indicator
  21,                                     !- Day of Month
  7,                                      !- Month
  SummerDesignDay,                        !- Day Type
  0,                                      !- Daylight Saving Time Indicator
  WetBulb,                                !- Humidity Indicating Type
  ,                                       !- Humidity Indicating Day Schedule Name
  DefaultMultipliers,                     !- Dry-Bulb Temperature Range Modifier Type
  ,                                       !- Dry-Bulb Temperature Range Modifier Schedule Name
  AshraeClearSky;                         !- Solar Model Indicator

OS:ScheduleTypeLimits,
  {aeab7724-3c9f-4a37-8cf8-72949010eb5a}, !- Handle
  Temperature,                            !- Name
  -60,                                    !- Lower Limit Value {BasedOnField A4}
  200,                                    !- Upper Limit Value {BasedOnField A4}
  CONTINUOUS,                             !- Numeric Type
  Temperature;                            !- Unit Type

OS:DefaultScheduleSet,
  {3c14a50c-3cad-46fd-83b9-8c8e596b49cf}, !- Handle
  Default Schedules,                      !- Name
  ,                                       !- Hours of Operation Schedule Name
  {ecbae999-e26b-4ef3-b2c7-7a8b5d42f7ca}, !- Number of People Schedule Name
  {6cc1b663-1cb2-4103-aeb3-dd7477e9ca4c}, !- People Activity Level Schedule Name
  {061a66b0-1636-444a-b174-4296270a5e00}, !- Lighting Schedule Name
  {c2d1aeef-bca1-4668-b743-33d1d26d64ac}, !- Electric Equipment Schedule Name
  {da00ee38-2f29-4137-91ba-20b027f49476}, !- Gas Equipment Schedule Name
  {f675277a-8280-43fa-85a1-ff945ae90ec8}, !- Hot Water Equipment Schedule Name
  {618cf8c4-922a-4f1b-bd83-a917ea03d72c}, !- Infiltration Schedule Name
  ,                                       !- Steam Equipment Schedule Name
  ;                                       !- Other Equipment Schedule Name

OS:Schedule:Ruleset,
  {ecbae999-e26b-4ef3-b2c7-7a8b5d42f7ca}, !- Handle
  Medium Office Number of People Schedule, !- Name
  {7a964c2a-fd8c-43df-8ed5-0929d21be786}, !- Schedule Type Limits Name
  {0f92c684-be17-4221-bd2f-3856a086640e}, !- Default Day Schedule Name
  {59c0d499-5db4-4eb1-9c38-9e0b7df2912a}; !- Summer Design Day Schedule Name

OS:Schedule:Day,
  {0f92c684-be17-4221-bd2f-3856a086640e}, !- Handle
  Medium Office Number of People All Other Days Schedule, !- Name
  {7a964c2a-fd8c-43df-8ed5-0929d21be786}, !- Schedule Type Limits Name
  ,                                       !- Interpolate to Timestep
  24,                                     !- Hour 1
  0,                                      !- Minute 1
  0;                                      !- Value Until Time 1

OS:Schedule:Day,
  {b5fbfe9f-6831-4642-80d9-1832587ff037}, !- Handle
  Medium Office Number of People Summer Design Day Schedule, !- Name
  ,                                       !- Schedule Type Limits Name
  ,                                       !- Interpolate to Timestep
  6,                                      !- Hour 1
  0,                                      !- Minute 1
  0,                                      !- Value Until Time 1
  22,                                     !- Hour 2
  0,                                      !- Minute 2
  1,                                      !- Value Until Time 2
  24,                                     !- Hour 3
  0,                                      !- Minute 3
  0.05;                                   !- Value Until Time 3

OS:Schedule:Day,
  {59c0d499-5db4-4eb1-9c38-9e0b7df2912a}, !- Handle
  Medium Office Number of People Summer Design Day Schedule 1, !- Name
  {7a964c2a-fd8c-43df-8ed5-0929d21be786}, !- Schedule Type Limits Name
  ,                                       !- Interpolate to Timestep
  6,                                      !- Hour 1
  0,                                      !- Minute 1
  0,                                      !- Value Until Time 1
  22,                                     !- Hour 2
  0,                                      !- Minute 2
  1,                                      !- Value Until Time 2
  24,                                     !- Hour 3
  0,                                      !- Minute 3
  0.05;                                   !- Value Until Time 3

OS:Schedule:Rule,
  {0e63de08-5ae7-4c27-8ddc-b6138101203f}, !- Handle
  Medium Office Number of People Schedule Weekdays Rule, !- Name
  {ecbae999-e26b-4ef3-b2c7-7a8b5d42f7ca}, !- Schedule Ruleset Name
  1,                                      !- Rule Order
  {aff53de9-4a14-4ebb-8f9b-0014473fa567}, !- Day Schedule Name
  ,                                       !- Apply Sunday
  Yes,                                    !- Apply Monday
  Yes,                                    !- Apply Tuesday
  Yes,                                    !- Apply Wednesday
  Yes,                                    !- Apply Thursday
  Yes;                                    !- Apply Friday

OS:Schedule:Day,
  {aff53de9-4a14-4ebb-8f9b-0014473fa567}, !- Handle
  Medium Office Number of People Weekdays Schedule, !- Name
  {7a964c2a-fd8c-43df-8ed5-0929d21be786}, !- Schedule Type Limits Name
  ,                                       !- Interpolate to Timestep
  6,                                      !- Hour 1
  0,                                      !- Minute 1
  0,                                      !- Value Until Time 1
  7,                                      !- Hour 2
  0,                                      !- Minute 2
  0.1,                                    !- Value Until Time 2
  8,                                      !- Hour 3
  0,                                      !- Minute 3
  0.2,                                    !- Value Until Time 3
  12,                                     !- Hour 4
  0,                                      !- Minute 4
  0.95,                                   !- Value Until Time 4
  13,                                     !- Hour 5
  0,                                      !- Minute 5
  0.5,                                    !- Value Until Time 5
  17,                                     !- Hour 6
  0,                                      !- Minute 6
  0.95,                                   !- Value Until Time 6
  18,                                     !- Hour 7
  0,                                      !- Minute 7
  0.7,                                    !- Value Until Time 7
  20,                                     !- Hour 8
  0,                                      !- Minute 8
  0.4,                                    !- Value Until Time 8
  22,                                     !- Hour 9
  0,                                      !- Minute 9
  0.1,                                    !- Value Until Time 9
  24,                                     !- Hour 10
  0,                                      !- Minute 10
  0.05;                                   !- Value Until Time 10

OS:Schedule:Rule,
  {62729e8b-bd36-4ec6-8e39-bf0d6cd339f5}, !- Handle
  Medium Office Number of People Schedule Saturday Rule, !- Name
  {ecbae999-e26b-4ef3-b2c7-7a8b5d42f7ca}, !- Schedule Ruleset Name
  0,                                      !- Rule Order
  {7340d19b-a8b5-45ce-94c2-f4e70bbd270a}, !- Day Schedule Name
  ,                                       !- Apply Sunday
  ,                                       !- Apply Monday
  ,                                       !- Apply Tuesday
  ,                                       !- Apply Wednesday
  ,                                       !- Apply Thursday
  ,                                       !- Apply Friday
  Yes;                                    !- Apply Saturday

OS:Schedule:Day,
  {7340d19b-a8b5-45ce-94c2-f4e70bbd270a}, !- Handle
  Medium Office Number of People Saturday Schedule, !- Name
  {7a964c2a-fd8c-43df-8ed5-0929d21be786}, !- Schedule Type Limits Name
  ,                                       !- Interpolate to Timestep
  6,                                      !- Hour 1
  0,                                      !- Minute 1
  0,                                      !- Value Until Time 1
  8,                                      !- Hour 2
  0,                                      !- Minute 2
  0.1,                                    !- Value Until Time 2
  14,                                     !- Hour 3
  0,                                      !- Minute 3
  0.5,                                    !- Value Until Time 3
  17,                                     !- Hour 4
  0,                                      !- Minute 4
  0.1,                                    !- Value Until Time 4
  24,                                     !- Hour 5
  0,                                      !- Minute 5
  0;                                      !- Value Until Time 5

OS:ScheduleTypeLimits,
  {7a964c2a-fd8c-43df-8ed5-0929d21be786}, !- Handle
  Fractional,                             !- Name
  0,                                      !- Lower Limit Value {BasedOnField A4}
  1,                                      !- Upper Limit Value {BasedOnField A4}
  Continuous;                             !- Numeric Type

OS:Schedule:Ruleset,
  {6cc1b663-1cb2-4103-aeb3-dd7477e9ca4c}, !- Handle
  Medium Office People Activity Level Schedule, !- Name
  {dbff038e-d646-4423-8318-96c1bde4feb7}, !- Schedule Type Limits Name
  {6b89fda4-87f0-478c-9b03-9782ddd6ba21}; !- Default Day Schedule Name

OS:Schedule:Day,
  {6b89fda4-87f0-478c-9b03-9782ddd6ba21}, !- Handle
  Medium Office People Activity Level All Days Schedule, !- Name
  {dbff038e-d646-4423-8318-96c1bde4feb7}, !- Schedule Type Limits Name
  ,                                       !- Interpolate to Timestep
  24,                                     !- Hour 1
  0,                                      !- Minute 1
  120;                                    !- Value Until Time 1

OS:ScheduleTypeLimits,
  {dbff038e-d646-4423-8318-96c1bde4feb7}, !- Handle
  ActivityLevel,                          !- Name
  0,                                      !- Lower Limit Value {BasedOnField A4}
  ,                                       !- Upper Limit Value {BasedOnField A4}
  Continuous,                             !- Numeric Type
  ActivityLevel;                          !- Unit Type

OS:Schedule:Ruleset,
  {061a66b0-1636-444a-b174-4296270a5e00}, !- Handle
  Medium Office Lighting Schedule,        !- Name
  {7a964c2a-fd8c-43df-8ed5-0929d21be786}, !- Schedule Type Limits Name
  {1fd0efc3-cd4e-4c8d-8317-c303146beda9}, !- Default Day Schedule Name
  {ad790f0b-a473-4b68-b6f7-ae2f9ed8cad0}, !- Summer Design Day Schedule Name
  {24cabaf6-7525-4400-9d63-fe4621823b23}; !- Winter Design Day Schedule Name

OS:Schedule:Day,
  {1fd0efc3-cd4e-4c8d-8317-c303146beda9}, !- Handle
  Medium Office Lighting All Other Days Schedule, !- Name
  {7a964c2a-fd8c-43df-8ed5-0929d21be786}, !- Schedule Type Limits Name
  ,                                       !- Interpolate to Timestep
  24,                                     !- Hour 1
  0,                                      !- Minute 1
  0.05;                                   !- Value Until Time 1

OS:Schedule:Day,
  {83062d8c-e505-4633-9097-6428494d1de2}, !- Handle
  Medium Office Lighting Summer Design Day Schedule, !- Name
  ,                                       !- Schedule Type Limits Name
  ,                                       !- Interpolate to Timestep
  6,                                      !- Hour 1
  0,                                      !- Minute 1
  1,                                      !- Value Until Time 1
  24,                                     !- Hour 2
  0,                                      !- Minute 2
  0;                                      !- Value Until Time 2

OS:Schedule:Day,
  {ad790f0b-a473-4b68-b6f7-ae2f9ed8cad0}, !- Handle
  Medium Office Lighting Summer Design Day Schedule 1, !- Name
  {7a964c2a-fd8c-43df-8ed5-0929d21be786}, !- Schedule Type Limits Name
  ,                                       !- Interpolate to Timestep
  6,                                      !- Hour 1
  0,                                      !- Minute 1
  1,                                      !- Value Until Time 1
  24,                                     !- Hour 2
  0,                                      !- Minute 2
  0;                                      !- Value Until Time 2

OS:Schedule:Day,
  {1ff4beb6-81db-45e3-9d93-408f5b592d41}, !- Handle
  Medium Office Lighting Winter Design Day Schedule, !- Name
  ,                                       !- Schedule Type Limits Name
  ,                                       !- Interpolate to Timestep
  24,                                     !- Hour 1
  0,                                      !- Minute 1
  0;                                      !- Value Until Time 1

OS:Schedule:Day,
  {24cabaf6-7525-4400-9d63-fe4621823b23}, !- Handle
  Medium Office Lighting Winter Design Day Schedule 1, !- Name
  {7a964c2a-fd8c-43df-8ed5-0929d21be786}, !- Schedule Type Limits Name
  ,                                       !- Interpolate to Timestep
  24,                                     !- Hour 1
  0,                                      !- Minute 1
  0;                                      !- Value Until Time 1

OS:Schedule:Rule,
  {439886e6-367c-4be6-9b5a-8e9ee4ab12c9}, !- Handle
  Medium Office Lighting Schedule Weekdays Rule, !- Name
  {061a66b0-1636-444a-b174-4296270a5e00}, !- Schedule Ruleset Name
  1,                                      !- Rule Order
  {f7f8c208-2f02-4d49-bb19-f21f7915a119}, !- Day Schedule Name
  ,                                       !- Apply Sunday
  Yes,                                    !- Apply Monday
  Yes,                                    !- Apply Tuesday
  Yes,                                    !- Apply Wednesday
  Yes,                                    !- Apply Thursday
  Yes;                                    !- Apply Friday

OS:Schedule:Day,
  {f7f8c208-2f02-4d49-bb19-f21f7915a119}, !- Handle
  Medium Office Lighting Weekdays Schedule, !- Name
  {7a964c2a-fd8c-43df-8ed5-0929d21be786}, !- Schedule Type Limits Name
  ,                                       !- Interpolate to Timestep
  5,                                      !- Hour 1
  0,                                      !- Minute 1
  0.05,                                   !- Value Until Time 1
  7,                                      !- Hour 2
  0,                                      !- Minute 2
  0.1,                                    !- Value Until Time 2
  8,                                      !- Hour 3
  0,                                      !- Minute 3
  0.3,                                    !- Value Until Time 3
  17,                                     !- Hour 4
  0,                                      !- Minute 4
  0.9,                                    !- Value Until Time 4
  18,                                     !- Hour 5
  0,                                      !- Minute 5
  0.7,                                    !- Value Until Time 5
  20,                                     !- Hour 6
  0,                                      !- Minute 6
  0.5,                                    !- Value Until Time 6
  22,                                     !- Hour 7
  0,                                      !- Minute 7
  0.3,                                    !- Value Until Time 7
  23,                                     !- Hour 8
  0,                                      !- Minute 8
  0.1,                                    !- Value Until Time 8
  24,                                     !- Hour 9
  0,                                      !- Minute 9
  0.05;                                   !- Value Until Time 9

OS:Schedule:Rule,
  {257191c8-7543-4672-8118-121c69fce083}, !- Handle
  Medium Office Lighting Schedule Saturday Rule, !- Name
  {061a66b0-1636-444a-b174-4296270a5e00}, !- Schedule Ruleset Name
  0,                                      !- Rule Order
  {47c56505-2d98-4f03-83bf-1d8db45c4cf2}, !- Day Schedule Name
  ,                                       !- Apply Sunday
  ,                                       !- Apply Monday
  ,                                       !- Apply Tuesday
  ,                                       !- Apply Wednesday
  ,                                       !- Apply Thursday
  ,                                       !- Apply Friday
  Yes;                                    !- Apply Saturday

OS:Schedule:Day,
  {47c56505-2d98-4f03-83bf-1d8db45c4cf2}, !- Handle
  Medium Office Lighting Saturday Schedule, !- Name
  {7a964c2a-fd8c-43df-8ed5-0929d21be786}, !- Schedule Type Limits Name
  ,                                       !- Interpolate to Timestep
  6,                                      !- Hour 1
  0,                                      !- Minute 1
  0.05,                                   !- Value Until Time 1
  8,                                      !- Hour 2
  0,                                      !- Minute 2
  0.1,                                    !- Value Until Time 2
  14,                                     !- Hour 3
  0,                                      !- Minute 3
  0.5,                                    !- Value Until Time 3
  17,                                     !- Hour 4
  0,                                      !- Minute 4
  0.15,                                   !- Value Until Time 4
  24,                                     !- Hour 5
  0,                                      !- Minute 5
  0.05;                                   !- Value Until Time 5

OS:Schedule:Ruleset,
  {c2d1aeef-bca1-4668-b743-33d1d26d64ac}, !- Handle
  Medium Office Electric Equipment Schedule, !- Name
  {7a964c2a-fd8c-43df-8ed5-0929d21be786}, !- Schedule Type Limits Name
  {a7eaa1f6-9a7f-4043-a912-4dd5b00fe911}, !- Default Day Schedule Name
  {706c00ce-2aef-47b8-ac38-c1fcf7af1fd0}, !- Summer Design Day Schedule Name
  {480db0c2-a1f8-4fdf-a949-aedbab9cfd54}; !- Winter Design Day Schedule Name

OS:Schedule:Day,
  {a7eaa1f6-9a7f-4043-a912-4dd5b00fe911}, !- Handle
  Medium Office Electric Equipment All Other Days Schedule, !- Name
  {7a964c2a-fd8c-43df-8ed5-0929d21be786}, !- Schedule Type Limits Name
  ,                                       !- Interpolate to Timestep
  24,                                     !- Hour 1
  0,                                      !- Minute 1
  0.3;                                    !- Value Until Time 1

OS:Schedule:Day,
  {16ea7f55-d064-4992-bcc9-78c926a5f6f9}, !- Handle
  Medium Office Electric Equipment Summer Design Day Schedule, !- Name
  ,                                       !- Schedule Type Limits Name
  ,                                       !- Interpolate to Timestep
  6,                                      !- Hour 1
  0,                                      !- Minute 1
  1,                                      !- Value Until Time 1
  24,                                     !- Hour 2
  0,                                      !- Minute 2
  0;                                      !- Value Until Time 2

OS:Schedule:Day,
  {706c00ce-2aef-47b8-ac38-c1fcf7af1fd0}, !- Handle
  Medium Office Electric Equipment Summer Design Day Schedule 1, !- Name
  {7a964c2a-fd8c-43df-8ed5-0929d21be786}, !- Schedule Type Limits Name
  ,                                       !- Interpolate to Timestep
  6,                                      !- Hour 1
  0,                                      !- Minute 1
  1,                                      !- Value Until Time 1
  24,                                     !- Hour 2
  0,                                      !- Minute 2
  0;                                      !- Value Until Time 2

OS:Schedule:Day,
  {bcaa5ca5-557a-4ee9-adde-14a891fd26fe}, !- Handle
  Medium Office Electric Equipment Winter Design Day Schedule, !- Name
  ,                                       !- Schedule Type Limits Name
  ,                                       !- Interpolate to Timestep
  24,                                     !- Hour 1
  0,                                      !- Minute 1
  0;                                      !- Value Until Time 1

OS:Schedule:Day,
  {480db0c2-a1f8-4fdf-a949-aedbab9cfd54}, !- Handle
  Medium Office Electric Equipment Winter Design Day Schedule 1, !- Name
  {7a964c2a-fd8c-43df-8ed5-0929d21be786}, !- Schedule Type Limits Name
  ,                                       !- Interpolate to Timestep
  24,                                     !- Hour 1
  0,                                      !- Minute 1
  0;                                      !- Value Until Time 1

OS:Schedule:Rule,
  {daa7f126-f6c8-4b18-bf17-3b6dde64a8b2}, !- Handle
  Medium Office Electric Equipment Schedule Weekdays Rule, !- Name
  {c2d1aeef-bca1-4668-b743-33d1d26d64ac}, !- Schedule Ruleset Name
  1,                                      !- Rule Order
  {cfb7522d-133e-423c-bb73-e6f328f1e1e5}, !- Day Schedule Name
  ,                                       !- Apply Sunday
  Yes,                                    !- Apply Monday
  Yes,                                    !- Apply Tuesday
  Yes,                                    !- Apply Wednesday
  Yes,                                    !- Apply Thursday
  Yes;                                    !- Apply Friday

OS:Schedule:Day,
  {cfb7522d-133e-423c-bb73-e6f328f1e1e5}, !- Handle
  Medium Office Electric Equipment Weekdays Schedule, !- Name
  {7a964c2a-fd8c-43df-8ed5-0929d21be786}, !- Schedule Type Limits Name
  ,                                       !- Interpolate to Timestep
  8,                                      !- Hour 1
  0,                                      !- Minute 1
  0.4,                                    !- Value Until Time 1
  12,                                     !- Hour 2
  0,                                      !- Minute 2
  0.9,                                    !- Value Until Time 2
  13,                                     !- Hour 3
  0,                                      !- Minute 3
  0.8,                                    !- Value Until Time 3
  17,                                     !- Hour 4
  0,                                      !- Minute 4
  0.9,                                    !- Value Until Time 4
  18,                                     !- Hour 5
  0,                                      !- Minute 5
  0.8,                                    !- Value Until Time 5
  20,                                     !- Hour 6
  0,                                      !- Minute 6
  0.6,                                    !- Value Until Time 6
  22,                                     !- Hour 7
  0,                                      !- Minute 7
  0.5,                                    !- Value Until Time 7
  24,                                     !- Hour 8
  0,                                      !- Minute 8
  0.4;                                    !- Value Until Time 8

OS:Schedule:Rule,
  {9ebea382-ba56-4d28-98d7-6bd785c46d15}, !- Handle
  Medium Office Electric Equipment Schedule Saturday Rule, !- Name
  {c2d1aeef-bca1-4668-b743-33d1d26d64ac}, !- Schedule Ruleset Name
  0,                                      !- Rule Order
  {8666a491-8f28-41cf-a572-b93242ce9661}, !- Day Schedule Name
  ,                                       !- Apply Sunday
  ,                                       !- Apply Monday
  ,                                       !- Apply Tuesday
  ,                                       !- Apply Wednesday