
OS:Version,
  {171b9569-466d-4925-8ba9-376d4cf5bcbe}, !- Handle
  1.10.1;                                 !- Version Identifier

OS:SimulationControl,
  {a8ad8c05-4aac-4a8d-888d-e71f1e8b5882}, !- Handle
  Yes,                                    !- Do Zone Sizing Calculation
  Yes,                                    !- Do System Sizing Calculation
  ,                                       !- Do Plant Sizing Calculation
  No,                                     !- Run Simulation for Sizing Periods
  Yes;                                    !- Run Simulation for Weather File Run Periods

OS:Timestep,
  {918929d0-d143-4517-8626-f088f355cc60}, !- Handle
  6;                                      !- Number of Timesteps per Hour

OS:RunPeriod,
  {f314ef7d-dcd8-49d2-aae9-f510732ddaf4}, !- Handle
  Run Period 1,                           !- Name
  1,                                      !- Begin Month
  1,                                      !- Begin Day of Month
  12,                                     !- End Month
  31,                                     !- End Day of Month
  No,                                     !- Use Weather File Holidays and Special Days
  No,                                     !- Use Weather File Daylight Saving Period
  No,                                     !- Apply Weekend Holiday Rule
  Yes,                                    !- Use Weather File Rain Indicators
  Yes,                                    !- Use Weather File Snow Indicators
  1;                                      !- Number of Times Runperiod to be Repeated

OS:SurfaceConvectionAlgorithm:Inside,
  {aec4c488-1fa8-4d6d-9bd1-72927dc7cdb6}, !- Handle
  TARP;                                   !- Algorithm

OS:SurfaceConvectionAlgorithm:Outside,
  {9a587506-56e8-40dc-b70d-b820a524610d}, !- Handle
  DOE-2;                                  !- Algorithm

OS:HeatBalanceAlgorithm,
  {fd0a9728-a576-4cd3-863e-cf482cd98677}, !- Handle
  ConductionTransferFunction,             !- Algorithm
  200;                                    !- Surface Temperature Upper Limit {C}

OS:ZoneAirHeatBalanceAlgorithm,
  {1917d2d1-19a7-4bc9-ae63-8f76506f8b0a}, !- Handle
  ThirdOrderBackwardDifference;           !- Algorithm

OS:ConvergenceLimits,
  {acaa493e-7eb4-4e02-8334-058aadbcf808}, !- Handle
  1;                                      !- Minimum System Timestep {minutes}

OS:ShadowCalculation,
  {a3f71bdc-484a-43fe-be79-84d7960b74e2}, !- Handle
  20,                                     !- Calculation Frequency
  15000;                                  !- Maximum Figures in Shadow Overlap Calculations

OS:Site,
  {d4d7deba-54c3-4943-9987-727987509556}, !- Handle
  Site 1,                                 !- Name
  41.77,                                  !- Latitude {deg}
  -87.75,                                 !- Longitude {deg}
  -6,                                     !- Time Zone {hr}
  190,                                    !- Elevation {m}
  ;                                       !- Terrain

OS:Site:GroundTemperature:BuildingSurface,
  {760f720b-08f5-40ca-8209-9dd41ea1a496}, !- Handle
  19.527,                                 !- January Ground Temperature {C}
  19.502,                                 !- February Ground Temperature {C}
  19.536,                                 !- March Ground Temperature {C}
  19.598,                                 !- April Ground Temperature {C}
  20.002,                                 !- May Ground Temperature {C}
  21.64,                                  !- June Ground Temperature {C}
  22.225,                                 !- July Ground Temperature {C}
  22.375,                                 !- August Ground Temperature {C}
  21.449,                                 !- September Ground Temperature {C}
  20.121,                                 !- October Ground Temperature {C}
  19.802,                                 !- November Ground Temperature {C}
  19.633;                                 !- December Ground Temperature {C}

OS:Site:WaterMainsTemperature,
  {a52fa7fe-0ed5-47db-a7d0-06c92769c9de}, !- Handle
  Correlation,                            !- Calculation Method
  ,                                       !- Temperature Schedule Name
  9.69,                                   !- Annual Average Outdoor Air Temperature {C}
  28.1;                                   !- Maximum Difference In Monthly Average Outdoor Air Temperatures {deltaC}

OS:SizingPeriod:DesignDay,
  {b64aa0d4-f5a7-460f-a2d0-f0c27f1524c3}, !- Handle
  Sizing Period Design Day 1,             !- Name
  -20.6,                                  !- Maximum Dry-Bulb Temperature {C}
  0,                                      !- Daily Dry-Bulb Temperature Range {deltaC}
  -20.6,                                  !- Humidity Indicating Conditions at Maximum Dry-Bulb {BasedOnField A3}
  99063,                                  !- Barometric Pressure {Pa}
  4.9,                                    !- Wind Speed {m/s}
  270,                                    !- Wind Direction {deg}
  0,                                      !- Sky Clearness
  0,                                      !- Rain Indicator
  0,                                      !- Snow Indicator
  21,                                     !- Day of Month
  1,                                      !- Month
  WinterDesignDay,                        !- Day Type
  0,                                      !- Daylight Saving Time Indicator
  WetBulb,                                !- Humidity Indicating Type
  ,                                       !- Humidity Indicating Day Schedule Name
  DefaultMultipliers,                     !- Dry-Bulb Temperature Range Modifier Type
  ,                                       !- Dry-Bulb Temperature Range Modifier Schedule Name
  AshraeClearSky;                         !- Solar Model Indicator

OS:SizingPeriod:DesignDay,
  {e27db827-4bb0-4929-b2cf-b501c4459f27}, !- Handle
  Sizing Period Design Day 2,             !- Name
  33.2,                                   !- Maximum Dry-Bulb Temperature {C}
  10.7,                                   !- Daily Dry-Bulb Temperature Range {deltaC}
  23.8,                                   !- Humidity Indicating Conditions at Maximum Dry-Bulb {BasedOnField A3}
  99063,                                  !- Barometric Pressure {Pa}
  5.3,                                    !- Wind Speed {m/s}
  230,                                    !- Wind Direction {deg}
  1,                                      !- Sky Clearness
  0,                                      !- Rain Indicator
  0,                                      !- Snow Indicator
  21,                                     !- Day of Month
  7,                                      !- Month
  SummerDesignDay,                        !- Day Type
  0,                                      !- Daylight Saving Time Indicator
  WetBulb,                                !- Humidity Indicating Type
  ,                                       !- Humidity Indicating Day Schedule Name
  DefaultMultipliers,                     !- Dry-Bulb Temperature Range Modifier Type
  ,                                       !- Dry-Bulb Temperature Range Modifier Schedule Name
  AshraeClearSky;                         !- Solar Model Indicator

OS:ScheduleTypeLimits,
  {c8acb4a6-c25e-4e1d-897f-2826fb6a23ae}, !- Handle
  Temperature,                            !- Name
  -60,                                    !- Lower Limit Value {BasedOnField A4}
  200,                                    !- Upper Limit Value {BasedOnField A4}
  CONTINUOUS,                             !- Numeric Type
  Temperature;                            !- Unit Type

OS:DefaultScheduleSet,
  {2af3c5be-2fa5-45d6-b3f6-6dbb18a25dfe}, !- Handle
  Default Schedules,                      !- Name
  ,                                       !- Hours of Operation Schedule Name
  {7c3b2f87-f7fe-4147-aeeb-0e656397af56}, !- Number of People Schedule Name
  {7a6bde24-b7f4-4388-b11b-286cd8b45628}, !- People Activity Level Schedule Name
  {cee27a92-fc0a-48b1-9215-4ab0a29a431f}, !- Lighting Schedule Name
  {749cbac1-7644-437c-93cc-2835a9761b05}, !- Electric Equipment Schedule Name
  {95d4e1aa-6e9e-4c9e-b448-9bc0f54aaf4a}, !- Gas Equipment Schedule Name
  {560fc955-944b-4fc0-b05d-ef2687651cf4}, !- Hot Water Equipment Schedule Name
  {45982852-936c-43be-9e44-84e796d2da7d}, !- Infiltration Schedule Name
  ,                                       !- Steam Equipment Schedule Name
  ;                                       !- Other Equipment Schedule Name

OS:Schedule:Ruleset,
  {7c3b2f87-f7fe-4147-aeeb-0e656397af56}, !- Handle
  Medium Office Number of People Schedule, !- Name
  {fd3fa671-53cb-498a-ba4f-9014f61b9964}, !- Schedule Type Limits Name
  {662e180e-3e9a-4b2c-bf06-34c8f7f6aeb5}, !- Default Day Schedule Name
  {e51e32bd-ca82-40bc-adef-7bdaa2cdc1b6}; !- Summer Design Day Schedule Name

OS:Schedule:Day,
  {662e180e-3e9a-4b2c-bf06-34c8f7f6aeb5}, !- Handle
  Medium Office Number of People All Other Days Schedule, !- Name
  {fd3fa671-53cb-498a-ba4f-9014f61b9964}, !- Schedule Type Limits Name
  ,                                       !- Interpolate to Timestep
  24,                                     !- Hour 1
  0,                                      !- Minute 1
  0;                                      !- Value Until Time 1

OS:Schedule:Day,
  {0a8d81b1-e6ed-488f-9662-44ad77a24157}, !- Handle
  Medium Office Number of People Summer Design Day Schedule, !- Name
  ,                                       !- Schedule Type Limits Name
  ,                                       !- Interpolate to Timestep
  6,                                      !- Hour 1
  0,                                      !- Minute 1
  0,                                      !- Value Until Time 1
  22,                                     !- Hour 2
  0,                                      !- Minute 2
  1,                                      !- Value Until Time 2
  24,                                     !- Hour 3
  0,                                      !- Minute 3
  0.05;                                   !- Value Until Time 3

OS:Schedule:Day,
  {e51e32bd-ca82-40bc-adef-7bdaa2cdc1b6}, !- Handle
  Medium Office Number of People Summer Design Day Schedule 1, !- Name
  {fd3fa671-53cb-498a-ba4f-9014f61b9964}, !- Schedule Type Limits Name
  ,                                       !- Interpolate to Timestep
  6,                                      !- Hour 1
  0,                                      !- Minute 1
  0,                                      !- Value Until Time 1
  22,                                     !- Hour 2
  0,                                      !- Minute 2
  1,                                      !- Value Until Time 2
  24,                                     !- Hour 3
  0,                                      !- Minute 3
  0.05;                                   !- Value Until Time 3

OS:Schedule:Rule,
  {266729cf-7179-40c1-8418-a3f230a47046}, !- Handle
  Medium Office Number of People Schedule Weekdays Rule, !- Name
  {7c3b2f87-f7fe-4147-aeeb-0e656397af56}, !- Schedule Ruleset Name
  1,                                      !- Rule Order
  {8caba8ba-22e2-4f04-89c0-a7e437439ceb}, !- Day Schedule Name
  ,                                       !- Apply Sunday
  Yes,                                    !- Apply Monday
  Yes,                                    !- Apply Tuesday
  Yes,                                    !- Apply Wednesday
  Yes,                                    !- Apply Thursday
  Yes;                                    !- Apply Friday

OS:Schedule:Day,
  {8caba8ba-22e2-4f04-89c0-a7e437439ceb}, !- Handle
  Medium Office Number of People Weekdays Schedule, !- Name
  {fd3fa671-53cb-498a-ba4f-9014f61b9964}, !- Schedule Type Limits Name
  ,                                       !- Interpolate to Timestep
  6,                                      !- Hour 1
  0,                                      !- Minute 1
  0,                                      !- Value Until Time 1
  7,                                      !- Hour 2
  0,                                      !- Minute 2
  0.1,                                    !- Value Until Time 2
  8,                                      !- Hour 3
  0,                                      !- Minute 3
  0.2,                                    !- Value Until Time 3
  12,                                     !- Hour 4
  0,                                      !- Minute 4
  0.95,                                   !- Value Until Time 4
  13,                                     !- Hour 5
  0,                                      !- Minute 5
  0.5,                                    !- Value Until Time 5
  17,                                     !- Hour 6
  0,                                      !- Minute 6
  0.95,                                   !- Value Until Time 6
  18,                                     !- Hour 7
  0,                                      !- Minute 7
  0.7,                                    !- Value Until Time 7
  20,                                     !- Hour 8
  0,                                      !- Minute 8
  0.4,                                    !- Value Until Time 8
  22,                                     !- Hour 9
  0,                                      !- Minute 9
  0.1,                                    !- Value Until Time 9
  24,                                     !- Hour 10
  0,                                      !- Minute 10
  0.05;                                   !- Value Until Time 10

OS:Schedule:Rule,
  {70706b2c-05ab-4cf4-bfd6-a836a6078df3}, !- Handle
  Medium Office Number of People Schedule Saturday Rule, !- Name
  {7c3b2f87-f7fe-4147-aeeb-0e656397af56}, !- Schedule Ruleset Name
  0,                                      !- Rule Order
  {f6d979eb-6a80-46ce-8ab9-c5f41508e1dc}, !- Day Schedule Name
  ,                                       !- Apply Sunday
  ,                                       !- Apply Monday
  ,                                       !- Apply Tuesday
  ,                                       !- Apply Wednesday
  ,                                       !- Apply Thursday
  ,                                       !- Apply Friday
  Yes;                                    !- Apply Saturday

OS:Schedule:Day,
  {f6d979eb-6a80-46ce-8ab9-c5f41508e1dc}, !- Handle
  Medium Office Number of People Saturday Schedule, !- Name
  {fd3fa671-53cb-498a-ba4f-9014f61b9964}, !- Schedule Type Limits Name
  ,                                       !- Interpolate to Timestep
  6,                                      !- Hour 1
  0,                                      !- Minute 1
  0,                                      !- Value Until Time 1
  8,                                      !- Hour 2
  0,                                      !- Minute 2
  0.1,                                    !- Value Until Time 2
  14,                                     !- Hour 3
  0,                                      !- Minute 3
  0.5,                                    !- Value Until Time 3
  17,                                     !- Hour 4
  0,                                      !- Minute 4
  0.1,                                    !- Value Until Time 4
  24,                                     !- Hour 5
  0,                                      !- Minute 5
  0;                                      !- Value Until Time 5

OS:ScheduleTypeLimits,
  {fd3fa671-53cb-498a-ba4f-9014f61b9964}, !- Handle
  Fractional,                             !- Name
  0,                                      !- Lower Limit Value {BasedOnField A4}
  1,                                      !- Upper Limit Value {BasedOnField A4}
  Continuous;                             !- Numeric Type

OS:Schedule:Ruleset,
  {7a6bde24-b7f4-4388-b11b-286cd8b45628}, !- Handle
  Medium Office People Activity Level Schedule, !- Name
  {bc15c69d-4398-4bc3-b5e4-f6f8854dcd7b}, !- Schedule Type Limits Name
  {a63fd254-66ab-401d-9825-4428a453b535}; !- Default Day Schedule Name

OS:Schedule:Day,
  {a63fd254-66ab-401d-9825-4428a453b535}, !- Handle
  Medium Office People Activity Level All Days Schedule, !- Name
  {bc15c69d-4398-4bc3-b5e4-f6f8854dcd7b}, !- Schedule Type Limits Name
  ,                                       !- Interpolate to Timestep
  24,                                     !- Hour 1
  0,                                      !- Minute 1
  120;                                    !- Value Until Time 1

OS:ScheduleTypeLimits,
  {bc15c69d-4398-4bc3-b5e4-f6f8854dcd7b}, !- Handle
  ActivityLevel,                          !- Name
  0,                                      !- Lower Limit Value {BasedOnField A4}
  ,                                       !- Upper Limit Value {BasedOnField A4}
  Continuous,                             !- Numeric Type
  ActivityLevel;                          !- Unit Type

OS:Schedule:Ruleset,
  {cee27a92-fc0a-48b1-9215-4ab0a29a431f}, !- Handle
  Medium Office Lighting Schedule,        !- Name
  {fd3fa671-53cb-498a-ba4f-9014f61b9964}, !- Schedule Type Limits Name
  {a42f9533-c43b-4f44-bc05-3a6449343739}, !- Default Day Schedule Name
  {ff000ede-caf3-4511-b7db-c0e312e8cace}, !- Summer Design Day Schedule Name
  {21b9c2fc-6f5b-436f-b24d-8a586e1fc614}; !- Winter Design Day Schedule Name

OS:Schedule:Day,
  {a42f9533-c43b-4f44-bc05-3a6449343739}, !- Handle
  Medium Office Lighting All Other Days Schedule, !- Name
  {fd3fa671-53cb-498a-ba4f-9014f61b9964}, !- Schedule Type Limits Name
  ,                                       !- Interpolate to Timestep
  24,                                     !- Hour 1
  0,                                      !- Minute 1
  0.05;                                   !- Value Until Time 1

OS:Schedule:Day,
  {5acb9362-c9fc-41df-8825-10244ffa67d9}, !- Handle
  Medium Office Lighting Summer Design Day Schedule, !- Name
  ,                                       !- Schedule Type Limits Name
  ,                                       !- Interpolate to Timestep
  6,                                      !- Hour 1
  0,                                      !- Minute 1
  1,                                      !- Value Until Time 1
  24,                                     !- Hour 2
  0,                                      !- Minute 2
  0;                                      !- Value Until Time 2

OS:Schedule:Day,
  {ff000ede-caf3-4511-b7db-c0e312e8cace}, !- Handle
  Medium Office Lighting Summer Design Day Schedule 1, !- Name
  {fd3fa671-53cb-498a-ba4f-9014f61b9964}, !- Schedule Type Limits Name
  ,                                       !- Interpolate to Timestep
  6,                                      !- Hour 1
  0,                                      !- Minute 1
  1,                                      !- Value Until Time 1
  24,                                     !- Hour 2
  0,                                      !- Minute 2
  0;                                      !- Value Until Time 2

OS:Schedule:Day,
  {81df72f6-bbf2-45ad-92bf-b44db0873830}, !- Handle
  Medium Office Lighting Winter Design Day Schedule, !- Name
  ,                                       !- Schedule Type Limits Name
  ,                                       !- Interpolate to Timestep
  24,                                     !- Hour 1
  0,                                      !- Minute 1
  0;                                      !- Value Until Time 1

OS:Schedule:Day,
  {21b9c2fc-6f5b-436f-b24d-8a586e1fc614}, !- Handle
  Medium Office Lighting Winter Design Day Schedule 1, !- Name
  {fd3fa671-53cb-498a-ba4f-9014f61b9964}, !- Schedule Type Limits Name
  ,                                       !- Interpolate to Timestep
  24,                                     !- Hour 1
  0,                                      !- Minute 1
  0;                                      !- Value Until Time 1

OS:Schedule:Rule,
  {60e296d2-554c-4207-911d-0d2ba9ce0dd1}, !- Handle
  Medium Office Lighting Schedule Weekdays Rule, !- Name
  {cee27a92-fc0a-48b1-9215-4ab0a29a431f}, !- Schedule Ruleset Name
  1,                                      !- Rule Order
  {1891e833-7602-40c0-a4de-620068983383}, !- Day Schedule Name
  ,                                       !- Apply Sunday
  Yes,                                    !- Apply Monday
  Yes,                                    !- Apply Tuesday
  Yes,                                    !- Apply Wednesday
  Yes,                                    !- Apply Thursday
  Yes;                                    !- Apply Friday

OS:Schedule:Day,
  {1891e833-7602-40c0-a4de-620068983383}, !- Handle
  Medium Office Lighting Weekdays Schedule, !- Name
  {fd3fa671-53cb-498a-ba4f-9014f61b9964}, !- Schedule Type Limits Name
  ,                                       !- Interpolate to Timestep
  5,                                      !- Hour 1
  0,                                      !- Minute 1
  0.05,                                   !- Value Until Time 1
  7,                                      !- Hour 2
  0,                                      !- Minute 2
  0.1,                                    !- Value Until Time 2
  8,                                      !- Hour 3
  0,                                      !- Minute 3
  0.3,                                    !- Value Until Time 3
  17,                                     !- Hour 4
  0,                                      !- Minute 4
  0.9,                                    !- Value Until Time 4
  18,                                     !- Hour 5
  0,                                      !- Minute 5
  0.7,                                    !- Value Until Time 5
  20,                                     !- Hour 6
  0,                                      !- Minute 6
  0.5,                                    !- Value Until Time 6
  22,                                     !- Hour 7
  0,                                      !- Minute 7
  0.3,                                    !- Value Until Time 7
  23,                                     !- Hour 8
  0,                                      !- Minute 8
  0.1,                                    !- Value Until Time 8
  24,                                     !- Hour 9
  0,                                      !- Minute 9
  0.05;                                   !- Value Until Time 9

OS:Schedule:Rule,
  {2367a0b2-46df-4d4a-8ac1-f121795d2b3a}, !- Handle
  Medium Office Lighting Schedule Saturday Rule, !- Name
  {cee27a92-fc0a-48b1-9215-4ab0a29a431f}, !- Schedule Ruleset Name
  0,                                      !- Rule Order
  {b9379348-6f06-4f94-9027-a8b0d3d50a1f}, !- Day Schedule Name
  ,                                       !- Apply Sunday
  ,                                       !- Apply Monday
  ,                                       !- Apply Tuesday
  ,                                       !- Apply Wednesday
  ,                                       !- Apply Thursday
  ,                                       !- Apply Friday
  Yes;                                    !- Apply Saturday

OS:Schedule:Day,
  {b9379348-6f06-4f94-9027-a8b0d3d50a1f}, !- Handle
  Medium Office Lighting Saturday Schedule, !- Name
  {fd3fa671-53cb-498a-ba4f-9014f61b9964}, !- Schedule Type Limits Name
  ,                                       !- Interpolate to Timestep
  6,                                      !- Hour 1
  0,                                      !- Minute 1
  0.05,                                   !- Value Until Time 1
  8,                                      !- Hour 2
  0,                                      !- Minute 2
  0.1,                                    !- Value Until Time 2
  14,                                     !- Hour 3
  0,                                      !- Minute 3
  0.5,                                    !- Value Until Time 3
  17,                                     !- Hour 4
  0,                                      !- Minute 4
  0.15,                                   !- Value Until Time 4
  24,                                     !- Hour 5
  0,                                      !- Minute 5
  0.05;                                   !- Value Until Time 5

OS:Schedule:Ruleset,
  {749cbac1-7644-437c-93cc-2835a9761b05}, !- Handle
  Medium Office Electric Equipment Schedule, !- Name
  {fd3fa671-53cb-498a-ba4f-9014f61b9964}, !- Schedule Type Limits Name
  {e49aa1dc-55ce-4495-80d3-5f72e17f930b}, !- Default Day Schedule Name
  {675eb82f-4f12-45bc-a584-5922cc09dc76}, !- Summer Design Day Schedule Name
  {3b60235e-78d9-498d-9536-ca4974a6e8a3}; !- Winter Design Day Schedule Name

OS:Schedule:Day,
  {e49aa1dc-55ce-4495-80d3-5f72e17f930b}, !- Handle
  Medium Office Electric Equipment All Other Days Schedule, !- Name
  {fd3fa671-53cb-498a-ba4f-9014f61b9964}, !- Schedule Type Limits Name
  ,                                       !- Interpolate to Timestep
  24,                                     !- Hour 1
  0,                                      !- Minute 1
  0.3;                                    !- Value Until Time 1

OS:Schedule:Day,
  {53347e5e-4352-42e4-9c72-dd693b275341}, !- Handle
  Medium Office Electric Equipment Summer Design Day Schedule, !- Name
  ,                                       !- Schedule Type Limits Name
  ,                                       !- Interpolate to Timestep
  6,                                      !- Hour 1
  0,                                      !- Minute 1
  1,                                      !- Value Until Time 1
  24,                                     !- Hour 2
  0,                                      !- Minute 2
  0;                                      !- Value Until Time 2

OS:Schedule:Day,
  {675eb82f-4f12-45bc-a584-5922cc09dc76}, !- Handle
  Medium Office Electric Equipment Summer Design Day Schedule 1, !- Name
  {fd3fa671-53cb-498a-ba4f-9014f61b9964}, !- Schedule Type Limits Name
  ,                                       !- Interpolate to Timestep
  6,                                      !- Hour 1
  0,                                      !- Minute 1
  1,                                      !- Value Until Time 1
  24,                                     !- Hour 2
  0,                                      !- Minute 2
  0;                                      !- Value Until Time 2

OS:Schedule:Day,
  {083cd4e5-7b44-4abd-8adc-b03b944cc974}, !- Handle
  Medium Office Electric Equipment Winter Design Day Schedule, !- Name
  ,                                       !- Schedule Type Limits Name
  ,                                       !- Interpolate to Timestep
  24,                                     !- Hour 1
  0,                                      !- Minute 1
  0;                                      !- Value Until Time 1

OS:Schedule:Day,
  {3b60235e-78d9-498d-9536-ca4974a6e8a3}, !- Handle
  Medium Office Electric Equipment Winter Design Day Schedule 1, !- Name
  {fd3fa671-53cb-498a-ba4f-9014f61b9964}, !- Schedule Type Limits Name
  ,                                       !- Interpolate to Timestep
  24,                                     !- Hour 1
  0,                                      !- Minute 1
  0;                                      !- Value Until Time 1

OS:Schedule:Rule,
  {32ed7d7e-c820-430e-a3b2-7cf661d5f17d}, !- Handle
  Medium Office Electric Equipment Schedule Weekdays Rule, !- Name
  {749cbac1-7644-437c-93cc-2835a9761b05}, !- Schedule Ruleset Name
  1,                                      !- Rule Order
  {5291a39f-ccd3-4b0a-bc4d-8e8358f81646}, !- Day Schedule Name
  ,                                       !- Apply Sunday
  Yes,                                    !- Apply Monday
  Yes,                                    !- Apply Tuesday
  Yes,                                    !- Apply Wednesday
  Yes,                                    !- Apply Thursday
  Yes;                                    !- Apply Friday

OS:Schedule:Day,
  {5291a39f-ccd3-4b0a-bc4d-8e8358f81646}, !- Handle
  Medium Office Electric Equipment Weekdays Schedule, !- Name
  {fd3fa671-53cb-498a-ba4f-9014f61b9964}, !- Schedule Type Limits Name
  ,                                       !- Interpolate to Timestep
  8,                                      !- Hour 1
  0,                                      !- Minute 1
  0.4,                                    !- Value Until Time 1
  12,                                     !- Hour 2
  0,                                      !- Minute 2
  0.9,                                    !- Value Until Time 2
  13,                                     !- Hour 3
  0,                                      !- Minute 3
  0.8,                                    !- Value Until Time 3
  17,                                     !- Hour 4
  0,                                      !- Minute 4
  0.9,                                    !- Value Until Time 4
  18,                                     !- Hour 5
  0,                                      !- Minute 5
  0.8,                                    !- Value Until Time 5
  20,                                     !- Hour 6
  0,                                      !- Minute 6
  0.6,                                    !- Value Until Time 6
  22,                                     !- Hour 7
  0,                                      !- Minute 7
  0.5,                                    !- Value Until Time 7
  24,                                     !- Hour 8
  0,                                      !- Minute 8
  0.4;                                    !- Value Until Time 8

OS:Schedule:Rule,
  {9c985c1f-fce7-4ccf-a825-aa92c1cbbeb1}, !- Handle
  Medium Office Electric Equipment Schedule Saturday Rule, !- Name
  {749cbac1-7644-437c-93cc-2835a9761b05}, !- Schedule Ruleset Name
  0,                                      !- Rule Order
  {df6ed3fd-3343-421b-92f1-b58e67fd91fb}, !- Day Schedule Name
  ,                                       !- Apply Sunday
  ,                                       !- Apply Monday