
OS:Version,
  {40d7b20b-f87b-4e14-b951-5656bb0faf7a}, !- Handle
  1.10.2;                                 !- Version Identifier

OS:SimulationControl,
  {add62ef5-69f1-408f-8641-96c9d4b573de}, !- Handle
  Yes,                                    !- Do Zone Sizing Calculation
  Yes,                                    !- Do System Sizing Calculation
  ,                                       !- Do Plant Sizing Calculation
  No,                                     !- Run Simulation for Sizing Periods
  Yes;                                    !- Run Simulation for Weather File Run Periods

OS:Timestep,
  {ca4b4d46-eec5-4257-9e2e-fd5fd30a602c}, !- Handle
  6;                                      !- Number of Timesteps per Hour

OS:RunPeriod,
  {7963e15c-224b-418c-bebb-5674e80d657d}, !- Handle
  Run Period 1,                           !- Name
  1,                                      !- Begin Month
  1,                                      !- Begin Day of Month
  12,                                     !- End Month
  31,                                     !- End Day of Month
  No,                                     !- Use Weather File Holidays and Special Days
  No,                                     !- Use Weather File Daylight Saving Period
  No,                                     !- Apply Weekend Holiday Rule
  Yes,                                    !- Use Weather File Rain Indicators
  Yes,                                    !- Use Weather File Snow Indicators
  1;                                      !- Number of Times Runperiod to be Repeated

OS:SurfaceConvectionAlgorithm:Inside,
  {8188c57c-0d14-42b2-88f0-5d86632eb613}, !- Handle
  TARP;                                   !- Algorithm

OS:SurfaceConvectionAlgorithm:Outside,
  {084360e5-eeac-4f9e-b1fc-2d7d9426ff74}, !- Handle
  DOE-2;                                  !- Algorithm

OS:HeatBalanceAlgorithm,
  {87bd0b08-da26-4a4b-b750-4dd8081d5046}, !- Handle
  ConductionTransferFunction,             !- Algorithm
  200;                                    !- Surface Temperature Upper Limit {C}

OS:ZoneAirHeatBalanceAlgorithm,
  {f5487105-4c33-4dea-ad10-4c138f338af9}, !- Handle
  ThirdOrderBackwardDifference;           !- Algorithm

OS:ConvergenceLimits,
  {d0e81fe2-f8c1-4229-8fce-223e050c624e}, !- Handle
  1;                                      !- Minimum System Timestep {minutes}

OS:ShadowCalculation,
  {08352eb3-7525-4873-969a-3974e735a1ae}, !- Handle
  20,                                     !- Calculation Frequency
  15000;                                  !- Maximum Figures in Shadow Overlap Calculations

OS:Site,
  {569d148a-7fa1-4d70-86eb-5ccbb34e01db}, !- Handle
  Site 1,                                 !- Name
  41.77,                                  !- Latitude {deg}
  -87.75,                                 !- Longitude {deg}
  -6,                                     !- Time Zone {hr}
  190,                                    !- Elevation {m}
  ;                                       !- Terrain

OS:Site:GroundTemperature:BuildingSurface,
  {dac1aa78-a6ef-4bba-b44e-b613570e5721}, !- Handle
  19.527,                                 !- January Ground Temperature {C}
  19.502,                                 !- February Ground Temperature {C}
  19.536,                                 !- March Ground Temperature {C}
  19.598,                                 !- April Ground Temperature {C}
  20.002,                                 !- May Ground Temperature {C}
  21.64,                                  !- June Ground Temperature {C}
  22.225,                                 !- July Ground Temperature {C}
  22.375,                                 !- August Ground Temperature {C}
  21.449,                                 !- September Ground Temperature {C}
  20.121,                                 !- October Ground Temperature {C}
  19.802,                                 !- November Ground Temperature {C}
  19.633;                                 !- December Ground Temperature {C}

OS:Site:WaterMainsTemperature,
  {4399a747-f052-41b3-81fd-a09439d9172d}, !- Handle
  Correlation,                            !- Calculation Method
  ,                                       !- Temperature Schedule Name
  9.69,                                   !- Annual Average Outdoor Air Temperature {C}
  28.1;                                   !- Maximum Difference In Monthly Average Outdoor Air Temperatures {deltaC}

OS:SizingPeriod:DesignDay,
  {edfe9c52-c5d0-40ff-ba55-70ea687e618c}, !- Handle
  Sizing Period Design Day 1,             !- Name
  -20.6,                                  !- Maximum Dry-Bulb Temperature {C}
  0,                                      !- Daily Dry-Bulb Temperature Range {deltaC}
  -20.6,                                  !- Humidity Indicating Conditions at Maximum Dry-Bulb {BasedOnField A3}
  99063,                                  !- Barometric Pressure {Pa}
  4.9,                                    !- Wind Speed {m/s}
  270,                                    !- Wind Direction {deg}
  0,                                      !- Sky Clearness
  0,                                      !- Rain Indicator
  0,                                      !- Snow Indicator
  21,                                     !- Day of Month
  1,                                      !- Month
  WinterDesignDay,                        !- Day Type
  0,                                      !- Daylight Saving Time Indicator
  WetBulb,                                !- Humidity Indicating Type
  ,                                       !- Humidity Indicating Day Schedule Name
  DefaultMultipliers,                     !- Dry-Bulb Temperature Range Modifier Type
  ,                                       !- Dry-Bulb Temperature Range Modifier Schedule Name
  AshraeClearSky;                         !- Solar Model Indicator

OS:SizingPeriod:DesignDay,
  {bd95ef01-2777-49d6-99e4-d37688658e55}, !- Handle
  Sizing Period Design Day 2,             !- Name
  33.2,                                   !- Maximum Dry-Bulb Temperature {C}
  10.7,                                   !- Daily Dry-Bulb Temperature Range {deltaC}
  23.8,                                   !- Humidity Indicating Conditions at Maximum Dry-Bulb {BasedOnField A3}
  99063,                                  !- Barometric Pressure {Pa}
  5.3,                                    !- Wind Speed {m/s}
  230,                                    !- Wind Direction {deg}
  1,                                      !- Sky Clearness
  0,                                      !- Rain Indicator
  0,                                      !- Snow Indicator
  21,                                     !- Day of Month
  7,                                      !- Month
  SummerDesignDay,                        !- Day Type
  0,                                      !- Daylight Saving Time Indicator
  WetBulb,                                !- Humidity Indicating Type
  ,                                       !- Humidity Indicating Day Schedule Name
  DefaultMultipliers,                     !- Dry-Bulb Temperature Range Modifier Type
  ,                                       !- Dry-Bulb Temperature Range Modifier Schedule Name
  AshraeClearSky;                         !- Solar Model Indicator

OS:ScheduleTypeLimits,
  {f41dd374-bf3c-4bfb-8121-cad77e17fa41}, !- Handle
  Temperature,                            !- Name
  -60,                                    !- Lower Limit Value {BasedOnField A4}
  200,                                    !- Upper Limit Value {BasedOnField A4}
  CONTINUOUS,                             !- Numeric Type
  Temperature;                            !- Unit Type

OS:DefaultScheduleSet,
  {88f4cd4a-3470-4088-b06e-7b7d50a4dcac}, !- Handle
  Default Schedules,                      !- Name
  ,                                       !- Hours of Operation Schedule Name
  {c830d3e6-ffe5-4e59-a4ce-e81f6741f52d}, !- Number of People Schedule Name
  {b43ba4c7-c12b-4594-9763-7531154f56e8}, !- People Activity Level Schedule Name
  {a3ba9d3f-91ea-42e7-993c-83ef4ed52422}, !- Lighting Schedule Name
  {280adf7a-cbad-430b-b1bb-9e630ecda81f}, !- Electric Equipment Schedule Name
  {e9aacd8e-929b-4b2b-8d6c-29df0849f2f8}, !- Gas Equipment Schedule Name
  {88f52152-c8cb-4352-9539-0d0db86bca80}, !- Hot Water Equipment Schedule Name
  {8177ca5d-c6f5-43da-b079-908be4b5e702}, !- Infiltration Schedule Name
  ,                                       !- Steam Equipment Schedule Name
  ;                                       !- Other Equipment Schedule Name

OS:Schedule:Ruleset,
  {c830d3e6-ffe5-4e59-a4ce-e81f6741f52d}, !- Handle
  Medium Office Number of People Schedule, !- Name
  {50aecff8-8e8b-46e2-8911-fdf8f5e63567}, !- Schedule Type Limits Name
  {4ce8de0b-af3a-4ec1-ad2d-7f68353aab42}, !- Default Day Schedule Name
  {babbb209-a03a-4cd7-8604-7ebad9aba643}; !- Summer Design Day Schedule Name

OS:Schedule:Day,
  {4ce8de0b-af3a-4ec1-ad2d-7f68353aab42}, !- Handle
  Medium Office Number of People All Other Days Schedule, !- Name
  {50aecff8-8e8b-46e2-8911-fdf8f5e63567}, !- Schedule Type Limits Name
  ,                                       !- Interpolate to Timestep
  24,                                     !- Hour 1
  0,                                      !- Minute 1
  0;                                      !- Value Until Time 1

OS:Schedule:Day,
  {d06f3904-47b2-4f0b-b89d-79ce81c38de2}, !- Handle
  Medium Office Number of People Summer Design Day Schedule, !- Name
  ,                                       !- Schedule Type Limits Name
  ,                                       !- Interpolate to Timestep
  6,                                      !- Hour 1
  0,                                      !- Minute 1
  0,                                      !- Value Until Time 1
  22,                                     !- Hour 2
  0,                                      !- Minute 2
  1,                                      !- Value Until Time 2
  24,                                     !- Hour 3
  0,                                      !- Minute 3
  0.05;                                   !- Value Until Time 3

OS:Schedule:Day,
  {babbb209-a03a-4cd7-8604-7ebad9aba643}, !- Handle
  Medium Office Number of People Summer Design Day Schedule 1, !- Name
  {50aecff8-8e8b-46e2-8911-fdf8f5e63567}, !- Schedule Type Limits Name
  ,                                       !- Interpolate to Timestep
  6,                                      !- Hour 1
  0,                                      !- Minute 1
  0,                                      !- Value Until Time 1
  22,                                     !- Hour 2
  0,                                      !- Minute 2
  1,                                      !- Value Until Time 2
  24,                                     !- Hour 3
  0,                                      !- Minute 3
  0.05;                                   !- Value Until Time 3

OS:Schedule:Rule,
  {3c68397e-36da-460d-abcb-e6d26dca215b}, !- Handle
  Medium Office Number of People Schedule Weekdays Rule, !- Name
  {c830d3e6-ffe5-4e59-a4ce-e81f6741f52d}, !- Schedule Ruleset Name
  1,                                      !- Rule Order
  {d93be14f-eef1-46cc-83b6-2676efc2abe5}, !- Day Schedule Name
  ,                                       !- Apply Sunday
  Yes,                                    !- Apply Monday
  Yes,                                    !- Apply Tuesday
  Yes,                                    !- Apply Wednesday
  Yes,                                    !- Apply Thursday
  Yes;                                    !- Apply Friday

OS:Schedule:Day,
  {d93be14f-eef1-46cc-83b6-2676efc2abe5}, !- Handle
  Medium Office Number of People Weekdays Schedule, !- Name
  {50aecff8-8e8b-46e2-8911-fdf8f5e63567}, !- Schedule Type Limits Name
  ,                                       !- Interpolate to Timestep
  6,                                      !- Hour 1
  0,                                      !- Minute 1
  0,                                      !- Value Until Time 1
  7,                                      !- Hour 2
  0,                                      !- Minute 2
  0.1,                                    !- Value Until Time 2
  8,                                      !- Hour 3
  0,                                      !- Minute 3
  0.2,                                    !- Value Until Time 3
  12,                                     !- Hour 4
  0,                                      !- Minute 4
  0.95,                                   !- Value Until Time 4
  13,                                     !- Hour 5
  0,                                      !- Minute 5
  0.5,                                    !- Value Until Time 5
  17,                                     !- Hour 6
  0,                                      !- Minute 6
  0.95,                                   !- Value Until Time 6
  18,                                     !- Hour 7
  0,                                      !- Minute 7
  0.7,                                    !- Value Until Time 7
  20,                                     !- Hour 8
  0,                                      !- Minute 8
  0.4,                                    !- Value Until Time 8
  22,                                     !- Hour 9
  0,                                      !- Minute 9
  0.1,                                    !- Value Until Time 9
  24,                                     !- Hour 10
  0,                                      !- Minute 10
  0.05;                                   !- Value Until Time 10

OS:Schedule:Rule,
  {0bc79428-2f70-41b1-934d-56c1e17e0c32}, !- Handle
  Medium Office Number of People Schedule Saturday Rule, !- Name
  {c830d3e6-ffe5-4e59-a4ce-e81f6741f52d}, !- Schedule Ruleset Name
  0,                                      !- Rule Order
  {598fa778-47b4-49fb-8b04-0181eb867b7b}, !- Day Schedule Name
  ,                                       !- Apply Sunday
  ,                                       !- Apply Monday
  ,                                       !- Apply Tuesday
  ,                                       !- Apply Wednesday
  ,                                       !- Apply Thursday
  ,                                       !- Apply Friday
  Yes;                                    !- Apply Saturday

OS:Schedule:Day,
  {598fa778-47b4-49fb-8b04-0181eb867b7b}, !- Handle
  Medium Office Number of People Saturday Schedule, !- Name
  {50aecff8-8e8b-46e2-8911-fdf8f5e63567}, !- Schedule Type Limits Name
  ,                                       !- Interpolate to Timestep
  6,                                      !- Hour 1
  0,                                      !- Minute 1
  0,                                      !- Value Until Time 1
  8,                                      !- Hour 2
  0,                                      !- Minute 2
  0.1,                                    !- Value Until Time 2
  14,                                     !- Hour 3
  0,                                      !- Minute 3
  0.5,                                    !- Value Until Time 3
  17,                                     !- Hour 4
  0,                                      !- Minute 4
  0.1,                                    !- Value Until Time 4
  24,                                     !- Hour 5
  0,                                      !- Minute 5
  0;                                      !- Value Until Time 5

OS:ScheduleTypeLimits,
  {50aecff8-8e8b-46e2-8911-fdf8f5e63567}, !- Handle
  Fractional,                             !- Name
  0,                                      !- Lower Limit Value {BasedOnField A4}
  1,                                      !- Upper Limit Value {BasedOnField A4}
  Continuous;                             !- Numeric Type

OS:Schedule:Ruleset,
  {b43ba4c7-c12b-4594-9763-7531154f56e8}, !- Handle
  Medium Office People Activity Level Schedule, !- Name
  {0b7e0a91-4d3f-4219-b035-0fd04ae33e2a}, !- Schedule Type Limits Name
  {42fa4cbb-97c7-4041-997d-89c5d14adf9e}; !- Default Day Schedule Name

OS:Schedule:Day,
  {42fa4cbb-97c7-4041-997d-89c5d14adf9e}, !- Handle
  Medium Office People Activity Level All Days Schedule, !- Name
  {0b7e0a91-4d3f-4219-b035-0fd04ae33e2a}, !- Schedule Type Limits Name
  ,                                       !- Interpolate to Timestep
  24,                                     !- Hour 1
  0,                                      !- Minute 1
  120;                                    !- Value Until Time 1

OS:ScheduleTypeLimits,
  {0b7e0a91-4d3f-4219-b035-0fd04ae33e2a}, !- Handle
  ActivityLevel,                          !- Name
  0,                                      !- Lower Limit Value {BasedOnField A4}
  ,                                       !- Upper Limit Value {BasedOnField A4}
  Continuous,                             !- Numeric Type
  ActivityLevel;                          !- Unit Type

OS:Schedule:Ruleset,
  {a3ba9d3f-91ea-42e7-993c-83ef4ed52422}, !- Handle
  Medium Office Lighting Schedule,        !- Name
  {50aecff8-8e8b-46e2-8911-fdf8f5e63567}, !- Schedule Type Limits Name
  {2142c869-443b-4b57-9b87-45595acae465}, !- Default Day Schedule Name
  {0b54f01d-5d3e-46e5-8c4d-91b0eb89aa05}, !- Summer Design Day Schedule Name
  {c1ec4e1f-9160-4317-b30b-800ac7307381}; !- Winter Design Day Schedule Name

OS:Schedule:Day,
  {2142c869-443b-4b57-9b87-45595acae465}, !- Handle
  Medium Office Lighting All Other Days Schedule, !- Name
  {50aecff8-8e8b-46e2-8911-fdf8f5e63567}, !- Schedule Type Limits Name
  ,                                       !- Interpolate to Timestep
  24,                                     !- Hour 1
  0,                                      !- Minute 1
  0.05;                                   !- Value Until Time 1

OS:Schedule:Day,
  {97e55b4a-e485-4bc8-8b1c-5d19f74bd222}, !- Handle
  Medium Office Lighting Summer Design Day Schedule, !- Name
  ,                                       !- Schedule Type Limits Name
  ,                                       !- Interpolate to Timestep
  6,                                      !- Hour 1
  0,                                      !- Minute 1
  1,                                      !- Value Until Time 1
  24,                                     !- Hour 2
  0,                                      !- Minute 2
  0;                                      !- Value Until Time 2

OS:Schedule:Day,
  {0b54f01d-5d3e-46e5-8c4d-91b0eb89aa05}, !- Handle
  Medium Office Lighting Summer Design Day Schedule 1, !- Name
  {50aecff8-8e8b-46e2-8911-fdf8f5e63567}, !- Schedule Type Limits Name
  ,                                       !- Interpolate to Timestep
  6,                                      !- Hour 1
  0,                                      !- Minute 1
  1,                                      !- Value Until Time 1
  24,                                     !- Hour 2
  0,                                      !- Minute 2
  0;                                      !- Value Until Time 2

OS:Schedule:Day,
  {3635eab8-3aac-4173-8cea-74c7eaf0a63f}, !- Handle
  Medium Office Lighting Winter Design Day Schedule, !- Name
  ,                                       !- Schedule Type Limits Name
  ,                                       !- Interpolate to Timestep
  24,                                     !- Hour 1
  0,                                      !- Minute 1
  0;                                      !- Value Until Time 1

OS:Schedule:Day,
  {c1ec4e1f-9160-4317-b30b-800ac7307381}, !- Handle
  Medium Office Lighting Winter Design Day Schedule 1, !- Name
  {50aecff8-8e8b-46e2-8911-fdf8f5e63567}, !- Schedule Type Limits Name
  ,                                       !- Interpolate to Timestep
  24,                                     !- Hour 1
  0,                                      !- Minute 1
  0;                                      !- Value Until Time 1

OS:Schedule:Rule,
  {d530021c-309b-4a43-9742-6411d4ac243d}, !- Handle
  Medium Office Lighting Schedule Weekdays Rule, !- Name
  {a3ba9d3f-91ea-42e7-993c-83ef4ed52422}, !- Schedule Ruleset Name
  1,                                      !- Rule Order
  {15459fb4-6c68-4d32-bdf5-5ee815281858}, !- Day Schedule Name
  ,                                       !- Apply Sunday
  Yes,                                    !- Apply Monday
  Yes,                                    !- Apply Tuesday
  Yes,                                    !- Apply Wednesday
  Yes,                                    !- Apply Thursday
  Yes;                                    !- Apply Friday

OS:Schedule:Day,
  {15459fb4-6c68-4d32-bdf5-5ee815281858}, !- Handle
  Medium Office Lighting Weekdays Schedule, !- Name
  {50aecff8-8e8b-46e2-8911-fdf8f5e63567}, !- Schedule Type Limits Name
  ,                                       !- Interpolate to Timestep
  5,                                      !- Hour 1
  0,                                      !- Minute 1
  0.05,                                   !- Value Until Time 1
  7,                                      !- Hour 2
  0,                                      !- Minute 2
  0.1,                                    !- Value Until Time 2
  8,                                      !- Hour 3
  0,                                      !- Minute 3
  0.3,                                    !- Value Until Time 3
  17,                                     !- Hour 4
  0,                                      !- Minute 4
  0.9,                                    !- Value Until Time 4
  18,                                     !- Hour 5
  0,                                      !- Minute 5
  0.7,                                    !- Value Until Time 5
  20,                                     !- Hour 6
  0,                                      !- Minute 6
  0.5,                                    !- Value Until Time 6
  22,                                     !- Hour 7
  0,                                      !- Minute 7
  0.3,                                    !- Value Until Time 7
  23,                                     !- Hour 8
  0,                                      !- Minute 8
  0.1,                                    !- Value Until Time 8
  24,                                     !- Hour 9
  0,                                      !- Minute 9
  0.05;                                   !- Value Until Time 9

OS:Schedule:Rule,
  {9b1c5e02-7d51-4b6e-9fb0-1b72f6833725}, !- Handle
  Medium Office Lighting Schedule Saturday Rule, !- Name
  {a3ba9d3f-91ea-42e7-993c-83ef4ed52422}, !- Schedule Ruleset Name
  0,                                      !- Rule Order
  {d1354538-7f45-4cce-8238-c40f897b6fe7}, !- Day Schedule Name
  ,                                       !- Apply Sunday
  ,                                       !- Apply Monday
  ,                                       !- Apply Tuesday
  ,                                       !- Apply Wednesday
  ,                                       !- Apply Thursday
  ,                                       !- Apply Friday
  Yes;                                    !- Apply Saturday

OS:Schedule:Day,
  {d1354538-7f45-4cce-8238-c40f897b6fe7}, !- Handle
  Medium Office Lighting Saturday Schedule, !- Name
  {50aecff8-8e8b-46e2-8911-fdf8f5e63567}, !- Schedule Type Limits Name
  ,                                       !- Interpolate to Timestep
  6,                                      !- Hour 1
  0,                                      !- Minute 1
  0.05,                                   !- Value Until Time 1
  8,                                      !- Hour 2
  0,                                      !- Minute 2
  0.1,                                    !- Value Until Time 2
  14,                                     !- Hour 3
  0,                                      !- Minute 3
  0.5,                                    !- Value Until Time 3
  17,                                     !- Hour 4
  0,                                      !- Minute 4
  0.15,                                   !- Value Until Time 4
  24,                                     !- Hour 5
  0,                                      !- Minute 5
  0.05;                                   !- Value Until Time 5

OS:Schedule:Ruleset,
  {280adf7a-cbad-430b-b1bb-9e630ecda81f}, !- Handle
  Medium Office Electric Equipment Schedule, !- Name
  {50aecff8-8e8b-46e2-8911-fdf8f5e63567}, !- Schedule Type Limits Name
  {8dd8e8a1-5b5e-4349-ab52-96b7cc12224d}, !- Default Day Schedule Name
  {8e7dac24-2eda-487d-93bc-488d2ec9fa56}, !- Summer Design Day Schedule Name
  {b3edee6d-c1c3-4a61-8e3e-76e2d210eddb}; !- Winter Design Day Schedule Name

OS:Schedule:Day,
  {8dd8e8a1-5b5e-4349-ab52-96b7cc12224d}, !- Handle
  Medium Office Electric Equipment All Other Days Schedule, !- Name
  {50aecff8-8e8b-46e2-8911-fdf8f5e63567}, !- Schedule Type Limits Name
  ,                                       !- Interpolate to Timestep
  24,                                     !- Hour 1
  0,                                      !- Minute 1
  0.3;                                    !- Value Until Time 1

OS:Schedule:Day,
  {ed208074-b5b7-459f-b503-d580953f93b7}, !- Handle
  Medium Office Electric Equipment Summer Design Day Schedule, !- Name
  ,                                       !- Schedule Type Limits Name
  ,                                       !- Interpolate to Timestep
  6,                                      !- Hour 1
  0,                                      !- Minute 1
  1,                                      !- Value Until Time 1
  24,                                     !- Hour 2
  0,                                      !- Minute 2
  0;                                      !- Value Until Time 2

OS:Schedule:Day,
  {8e7dac24-2eda-487d-93bc-488d2ec9fa56}, !- Handle
  Medium Office Electric Equipment Summer Design Day Schedule 1, !- Name
  {50aecff8-8e8b-46e2-8911-fdf8f5e63567}, !- Schedule Type Limits Name
  ,                                       !- Interpolate to Timestep
  6,                                      !- Hour 1
  0,                                      !- Minute 1
  1,                                      !- Value Until Time 1
  24,                                     !- Hour 2
  0,                                      !- Minute 2
  0;                                      !- Value Until Time 2

OS:Schedule:Day,
  {b340b200-a67e-4370-90e5-84758e2506f5}, !- Handle
  Medium Office Electric Equipment Winter Design Day Schedule, !- Name
  ,                                       !- Schedule Type Limits Name
  ,                                       !- Interpolate to Timestep
  24,                                     !- Hour 1
  0,                                      !- Minute 1
  0;                                      !- Value Until Time 1

OS:Schedule:Day,
  {b3edee6d-c1c3-4a61-8e3e-76e2d210eddb}, !- Handle
  Medium Office Electric Equipment Winter Design Day Schedule 1, !- Name
  {50aecff8-8e8b-46e2-8911-fdf8f5e63567}, !- Schedule Type Limits Name
  ,                                       !- Interpolate to Timestep
  24,                                     !- Hour 1
  0,                                      !- Minute 1
  0;                                      !- Value Until Time 1

OS:Schedule:Rule,
  {c652f4ec-83e6-4abb-b799-7f75e60d059d}, !- Handle
  Medium Office Electric Equipment Schedule Weekdays Rule, !- Name
  {280adf7a-cbad-430b-b1bb-9e630ecda81f}, !- Schedule Ruleset Name
  1,                                      !- Rule Order
  {04528dd2-6029-413c-8fd2-a3e651903d01}, !- Day Schedule Name
  ,                                       !- Apply Sunday
  Yes,                                    !- Apply Monday
  Yes,                                    !- Apply Tuesday
  Yes,                                    !- Apply Wednesday
  Yes,                                    !- Apply Thursday
  Yes;                                    !- Apply Friday

OS:Schedule:Day,
  {04528dd2-6029-413c-8fd2-a3e651903d01}, !- Handle
  Medium Office Electric Equipment Weekdays Schedule, !- Name
  {50aecff8-8e8b-46e2-8911-fdf8f5e63567}, !- Schedule Type Limits Name
  ,                                       !- Interpolate to Timestep
  8,                                      !- Hour 1
  0,                                      !- Minute 1
  0.4,                                    !- Value Until Time 1
  12,                                     !- Hour 2
  0,                                      !- Minute 2
  0.9,                                    !- Value Until Time 2
  13,                                     !- Hour 3
  0,                                      !- Minute 3
  0.8,                                    !- Value Until Time 3
  17,                                     !- Hour 4
  0,                                      !- Minute 4
  0.9,                                    !- Value Until Time 4
  18,                                     !- Hour 5
  0,                                      !- Minute 5
  0.8,                                    !- Value Until Time 5
  20,                                     !- Hour 6
  0,                                      !- Minute 6
  0.6,                                    !- Value Until Time 6
  22,                                     !- Hour 7
  0,                                      !- Minute 7
  0.5,                                    !- Value Until Time 7
  24,                                     !- Hour 8
  0,                                      !- Minute 8
  0.4;                                    !- Value Until Time 8

OS:Schedule:Rule,
  {4e13ab90-7c45-450e-9e9c-8694b596d3a8}, !- Handle
  Medium Office Electric Equipment Schedule Saturday Rule, !- Name
  {280adf7a-cbad-430b-b1bb-9e630ecda81f}, !- Schedule Ruleset Name
  0,                                      !- Rule Order
  {e64d4916-aacd-4506-b255-f1b7ec980d51}, !- Day Schedule Name
  ,                                       !- Apply Sunday
  ,                                       !- Apply Monday