
OS:Version,
  {8450ada7-e889-4030-af0c-71b65f33d947}, !- Handle
  1.7.0;                                  !- Version Identifier

OS:SimulationControl,
  {96c8bcac-aade-4dba-82cc-fe94c7ccf4c5}, !- Handle
  Yes,                                    !- Do Zone Sizing Calculation
  Yes,                                    !- Do System Sizing Calculation
  ,                                       !- Do Plant Sizing Calculation
  No,                                     !- Run Simulation for Sizing Periods
  Yes;                                    !- Run Simulation for Weather File Run Periods

OS:Timestep,
  {63192e75-a82e-4edb-98c4-0a53976849ab}, !- Handle
  6;                                      !- Number of Timesteps per Hour

OS:RunPeriod,
  {862703a2-d617-470e-b838-96f1f65670f2}, !- Handle
  Run Period 1,                           !- Name
  1,                                      !- Begin Month
  1,                                      !- Begin Day of Month
  12,                                     !- End Month
  31,                                     !- End Day of Month
  No,                                     !- Use Weather File Holidays and Special Days
  No,                                     !- Use Weather File Daylight Saving Period
  No,                                     !- Apply Weekend Holiday Rule
  Yes,                                    !- Use Weather File Rain Indicators
  Yes,                                    !- Use Weather File Snow Indicators
  1;                                      !- Number of Times Runperiod to be Repeated

OS:SurfaceConvectionAlgorithm:Inside,
  {e9c5a039-996f-4360-ba4a-06af394e02e7}, !- Handle
  TARP;                                   !- Algorithm

OS:SurfaceConvectionAlgorithm:Outside,
  {8c9fd806-121c-4917-878b-af76965f2e44}, !- Handle
  DOE-2;                                  !- Algorithm

OS:HeatBalanceAlgorithm,
  {0b547489-4cbf-4b6c-b4dc-8dece7190a9a}, !- Handle
  ConductionTransferFunction,             !- Algorithm
  200;                                    !- Surface Temperature Upper Limit {F}

OS:ZoneAirHeatBalanceAlgorithm,
  {5f9547e7-b691-49fc-8afc-d00140e9d977}, !- Handle
  AnalyticalSolution;                     !- Algorithm

OS:ConvergenceLimits,
  {ffb4db1d-ebab-465f-8d90-a76b225cf763}; !- Handle

OS:ShadowCalculation,
  {6ce295b0-6551-4f1f-adda-5d438d7a9b52}, !- Handle
  7,                                      !- Calculation Frequency
  15000;                                  !- Maximum Figures in Shadow Overlap Calculations

OS:Site,
  {dd481847-3936-4d9b-86fe-5470c098486a}, !- Handle
  Site 1,                                 !- Name
  41.77,                                  !- Latitude {deg}
  -87.75,                                 !- Longitude {deg}
  -6,                                     !- Time Zone {hr}
  190,                                    !- Elevation {m}
  ;                                       !- Terrain

OS:Site:GroundTemperature:BuildingSurface,
  {21c1c770-e671-4ae8-8899-81833679329f}, !- Handle
  19.527,                                 !- January Ground Temperature {C}
  19.502,                                 !- February Ground Temperature {C}
  19.536,                                 !- March Ground Temperature {C}
  19.598,                                 !- April Ground Temperature {C}
  20.002,                                 !- May Ground Temperature {C}
  21.64,                                  !- June Ground Temperature {C}
  22.225,                                 !- July Ground Temperature {C}
  22.375,                                 !- August Ground Temperature {C}
  21.449,                                 !- September Ground Temperature {C}
  20.121,                                 !- October Ground Temperature {C}
  19.802,                                 !- November Ground Temperature {C}
  19.633;                                 !- December Ground Temperature {C}

OS:Site:WaterMainsTemperature,
  {f602c3bf-3c6d-41ca-9580-d4f934e6e4c5}, !- Handle
  Correlation,                            !- Calculation Method
  ,                                       !- Temperature Schedule Name
  9.69,                                   !- Annual Average Outdoor Air Temperature {C}
  28.1;                                   !- Maximum Difference In Monthly Average Outdoor Air Temperatures {deltaC}

OS:SizingPeriod:DesignDay,
  {95048065-80aa-4466-9d63-ab510aae76b4}, !- Handle
  Sizing Period Design Day 1,             !- Name
  -20.6,                                  !- Maximum Dry-Bulb Temperature {C}
  0,                                      !- Daily Dry-Bulb Temperature Range {deltaC}
  -20.6,                                  !- Humidity Indicating Conditions at Maximum Dry-Bulb {BasedOnField A3}
  99063,                                  !- Barometric Pressure {Pa}
  4.9,                                    !- Wind Speed {m/s}
  270,                                    !- Wind Direction {deg}
  0,                                      !- Sky Clearness
  0,                                      !- Rain Indicator
  0,                                      !- Snow Indicator
  21,                                     !- Day of Month
  1,                                      !- Month
  WinterDesignDay,                        !- Day Type
  0,                                      !- Daylight Saving Time Indicator
  WetBulb,                                !- Humidity Indicating Type
  ,                                       !- Humidity Indicating Day Schedule Name
  DefaultMultipliers,                     !- Dry-Bulb Temperature Range Modifier Type
  ,                                       !- Dry-Bulb Temperature Range Modifier Schedule Name
  AshraeClearSky;                         !- Solar Model Indicator

OS:SizingPeriod:DesignDay,
  {e7c57073-c52a-4476-b6ee-f98d61b75f52}, !- Handle
  Sizing Period Design Day 2,             !- Name
  33.2,                                   !- Maximum Dry-Bulb Temperature {C}
  10.7,                                   !- Daily Dry-Bulb Temperature Range {deltaC}
  23.8,                                   !- Humidity Indicating Conditions at Maximum Dry-Bulb {BasedOnField A3}
  99063,                                  !- Barometric Pressure {Pa}
  5.3,                                    !- Wind Speed {m/s}
  230,                                    !- Wind Direction {deg}
  1,                                      !- Sky Clearness
  0,                                      !- Rain Indicator
  0,                                      !- Snow Indicator
  21,                                     !- Day of Month
  7,                                      !- Month
  SummerDesignDay,                        !- Day Type
  0,                                      !- Daylight Saving Time Indicator
  WetBulb,                                !- Humidity Indicating Type
  ,                                       !- Humidity Indicating Day Schedule Name
  DefaultMultipliers,                     !- Dry-Bulb Temperature Range Modifier Type
  ,                                       !- Dry-Bulb Temperature Range Modifier Schedule Name
  AshraeClearSky;                         !- Solar Model Indicator

OS:ScheduleTypeLimits,
  {6bb5fd49-a2dc-4eb5-af08-eede2859f0db}, !- Handle
  Temperature,                            !- Name
  -60,                                    !- Lower Limit Value {BasedOnField A4}
  200,                                    !- Upper Limit Value {BasedOnField A4}
  CONTINUOUS,                             !- Numeric Type
  Temperature;                            !- Unit Type

OS:DefaultScheduleSet,
  {f44ce382-5b96-4e7a-9497-d07121eb3bb9}, !- Handle
  Default Schedules,                      !- Name
  ,                                       !- Hours of Operation Schedule Name
  {bf1edcf7-b7f5-48ae-8119-81fa5333894a}, !- Number of People Schedule Name
  {55b29206-77a2-4497-b94d-2a114035f55a}, !- People Activity Level Schedule Name
  {94b0f70d-33f5-4359-934f-e2e68aecdbbe}, !- Lighting Schedule Name
  {c34978b1-3e2f-463c-9cf8-a5b05679bd2f}, !- Electric Equipment Schedule Name
  {a4bd790d-5e48-401e-b7e2-6dcab45fd90a}, !- Gas Equipment Schedule Name
  {2afbff76-5190-43c8-8ca3-a73de9ecd9d6}, !- Hot Water Equipment Schedule Name
  {deea3396-fe46-4d4d-a3cb-34f154301fc8}, !- Infiltration Schedule Name
  ,                                       !- Steam Equipment Schedule Name
  ;                                       !- Other Equipment Schedule Name

OS:Schedule:Ruleset,
  {bf1edcf7-b7f5-48ae-8119-81fa5333894a}, !- Handle
  Medium Office Number of People Schedule, !- Name
  {c560875c-c5c4-48a5-ab4b-1d0a117d83bc}, !- Schedule Type Limits Name
  {be9a8a06-f6ee-42a2-a89d-8c82877645c7}, !- Default Day Schedule Name
  {f5e63b95-f85a-4b69-bbc1-9121eb7404b9}; !- Summer Design Day Schedule Name

OS:Schedule:Day,
  {be9a8a06-f6ee-42a2-a89d-8c82877645c7}, !- Handle
  Medium Office Number of People All Other Days Schedule, !- Name
  {c560875c-c5c4-48a5-ab4b-1d0a117d83bc}, !- Schedule Type Limits Name
  ,                                       !- Interpolate to Timestep
  24,                                     !- Hour 1
  0,                                      !- Minute 1
  0;                                      !- Value Until Time 1

OS:Schedule:Day,
  {fcb0fcbb-f290-40a8-86bd-267f2b4e975e}, !- Handle
  Medium Office Number of People Summer Design Day Schedule, !- Name
  ,                                       !- Schedule Type Limits Name
  ,                                       !- Interpolate to Timestep
  6,                                      !- Hour 1
  0,                                      !- Minute 1
  0,                                      !- Value Until Time 1
  22,                                     !- Hour 2
  0,                                      !- Minute 2
  1,                                      !- Value Until Time 2
  24,                                     !- Hour 3
  0,                                      !- Minute 3
  0.05;                                   !- Value Until Time 3

OS:Schedule:Day,
  {f5e63b95-f85a-4b69-bbc1-9121eb7404b9}, !- Handle
  Medium Office Number of People Summer Design Day Schedule 1, !- Name
  {c560875c-c5c4-48a5-ab4b-1d0a117d83bc}, !- Schedule Type Limits Name
  ,                                       !- Interpolate to Timestep
  6,                                      !- Hour 1
  0,                                      !- Minute 1
  0,                                      !- Value Until Time 1
  22,                                     !- Hour 2
  0,                                      !- Minute 2
  1,                                      !- Value Until Time 2
  24,                                     !- Hour 3
  0,                                      !- Minute 3
  0.05;                                   !- Value Until Time 3

OS:Schedule:Rule,
  {20dd4416-693f-4a60-9575-88b29f522741}, !- Handle
  Medium Office Number of People Schedule Weekdays Rule, !- Name
  {bf1edcf7-b7f5-48ae-8119-81fa5333894a}, !- Schedule Ruleset Name
  1,                                      !- Rule Order
  {a3fe7bc0-c895-42cd-8b02-d7712173748c}, !- Day Schedule Name
  ,                                       !- Apply Sunday
  Yes,                                    !- Apply Monday
  Yes,                                    !- Apply Tuesday
  Yes,                                    !- Apply Wednesday
  Yes,                                    !- Apply Thursday
  Yes;                                    !- Apply Friday

OS:Schedule:Day,
  {a3fe7bc0-c895-42cd-8b02-d7712173748c}, !- Handle
  Medium Office Number of People Weekdays Schedule, !- Name
  {c560875c-c5c4-48a5-ab4b-1d0a117d83bc}, !- Schedule Type Limits Name
  ,                                       !- Interpolate to Timestep
  6,                                      !- Hour 1
  0,                                      !- Minute 1
  0,                                      !- Value Until Time 1
  7,                                      !- Hour 2
  0,                                      !- Minute 2
  0.1,                                    !- Value Until Time 2
  8,                                      !- Hour 3
  0,                                      !- Minute 3
  0.2,                                    !- Value Until Time 3
  12,                                     !- Hour 4
  0,                                      !- Minute 4
  0.95,                                   !- Value Until Time 4
  13,                                     !- Hour 5
  0,                                      !- Minute 5
  0.5,                                    !- Value Until Time 5
  17,                                     !- Hour 6
  0,                                      !- Minute 6
  0.95,                                   !- Value Until Time 6
  18,                                     !- Hour 7
  0,                                      !- Minute 7
  0.7,                                    !- Value Until Time 7
  20,                                     !- Hour 8
  0,                                      !- Minute 8
  0.4,                                    !- Value Until Time 8
  22,                                     !- Hour 9
  0,                                      !- Minute 9
  0.1,                                    !- Value Until Time 9
  24,                                     !- Hour 10
  0,                                      !- Minute 10
  0.05;                                   !- Value Until Time 10

OS:Schedule:Rule,
  {1fa0dc0b-6d5b-4540-a0f7-ce7a64a3002a}, !- Handle
  Medium Office Number of People Schedule Saturday Rule, !- Name
  {bf1edcf7-b7f5-48ae-8119-81fa5333894a}, !- Schedule Ruleset Name
  0,                                      !- Rule Order
  {6550ed38-2a5d-42cb-8b0c-9249ada27b46}, !- Day Schedule Name
  ,                                       !- Apply Sunday
  ,                                       !- Apply Monday
  ,                                       !- Apply Tuesday
  ,                                       !- Apply Wednesday
  ,                                       !- Apply Thursday
  ,                                       !- Apply Friday
  Yes;                                    !- Apply Saturday

OS:Schedule:Day,
  {6550ed38-2a5d-42cb-8b0c-9249ada27b46}, !- Handle
  Medium Office Number of People Saturday Schedule, !- Name
  {c560875c-c5c4-48a5-ab4b-1d0a117d83bc}, !- Schedule Type Limits Name
  ,                                       !- Interpolate to Timestep
  6,                                      !- Hour 1
  0,                                      !- Minute 1
  0,                                      !- Value Until Time 1
  8,                                      !- Hour 2
  0,                                      !- Minute 2
  0.1,                                    !- Value Until Time 2
  14,                                     !- Hour 3
  0,                                      !- Minute 3
  0.5,                                    !- Value Until Time 3
  17,                                     !- Hour 4
  0,                                      !- Minute 4
  0.1,                                    !- Value Until Time 4
  24,                                     !- Hour 5
  0,                                      !- Minute 5
  0;                                      !- Value Until Time 5

OS:ScheduleTypeLimits,
  {c560875c-c5c4-48a5-ab4b-1d0a117d83bc}, !- Handle
  Fractional,                             !- Name
  0,                                      !- Lower Limit Value {BasedOnField A4}
  1,                                      !- Upper Limit Value {BasedOnField A4}
  Continuous;                             !- Numeric Type

OS:Schedule:Ruleset,
  {55b29206-77a2-4497-b94d-2a114035f55a}, !- Handle
  Medium Office People Activity Level Schedule, !- Name
  {074dce45-919d-4f5e-b594-ad68ff63719d}, !- Schedule Type Limits Name
  {98b91788-85cb-41ff-ae02-4f1307899964}; !- Default Day Schedule Name

OS:Schedule:Day,
  {98b91788-85cb-41ff-ae02-4f1307899964}, !- Handle
  Medium Office People Activity Level All Days Schedule, !- Name
  {074dce45-919d-4f5e-b594-ad68ff63719d}, !- Schedule Type Limits Name
  ,                                       !- Interpolate to Timestep
  24,                                     !- Hour 1
  0,                                      !- Minute 1
  120;                                    !- Value Until Time 1

OS:ScheduleTypeLimits,
  {074dce45-919d-4f5e-b594-ad68ff63719d}, !- Handle
  ActivityLevel,                          !- Name
  0,                                      !- Lower Limit Value {BasedOnField A4}
  ,                                       !- Upper Limit Value {BasedOnField A4}
  Continuous,                             !- Numeric Type
  ActivityLevel;                          !- Unit Type

OS:Schedule:Ruleset,
  {94b0f70d-33f5-4359-934f-e2e68aecdbbe}, !- Handle
  Medium Office Lighting Schedule,        !- Name
  {c560875c-c5c4-48a5-ab4b-1d0a117d83bc}, !- Schedule Type Limits Name
  {4903732a-e8c2-40aa-9827-bc904189f027}, !- Default Day Schedule Name
  {593bab29-aa50-45f8-8af1-93adb0331260}, !- Summer Design Day Schedule Name
  {e9d9970c-1b3c-48f3-827e-51b3cec16467}; !- Winter Design Day Schedule Name

OS:Schedule:Day,
  {4903732a-e8c2-40aa-9827-bc904189f027}, !- Handle
  Medium Office Lighting All Other Days Schedule, !- Name
  {c560875c-c5c4-48a5-ab4b-1d0a117d83bc}, !- Schedule Type Limits Name
  ,                                       !- Interpolate to Timestep
  24,                                     !- Hour 1
  0,                                      !- Minute 1
  0.05;                                   !- Value Until Time 1

OS:Schedule:Day,
  {971ec23f-7ebc-40a0-87c9-a801ee77bc9c}, !- Handle
  Medium Office Lighting Summer Design Day Schedule, !- Name
  ,                                       !- Schedule Type Limits Name
  ,                                       !- Interpolate to Timestep
  6,                                      !- Hour 1
  0,                                      !- Minute 1
  1,                                      !- Value Until Time 1
  24,                                     !- Hour 2
  0,                                      !- Minute 2
  0;                                      !- Value Until Time 2

OS:Schedule:Day,
  {593bab29-aa50-45f8-8af1-93adb0331260}, !- Handle
  Medium Office Lighting Summer Design Day Schedule 1, !- Name
  {c560875c-c5c4-48a5-ab4b-1d0a117d83bc}, !- Schedule Type Limits Name
  ,                                       !- Interpolate to Timestep
  6,                                      !- Hour 1
  0,                                      !- Minute 1
  1,                                      !- Value Until Time 1
  24,                                     !- Hour 2
  0,                                      !- Minute 2
  0;                                      !- Value Until Time 2

OS:Schedule:Day,
  {05aed4fb-45ad-419d-8948-d0e2d09b6d12}, !- Handle
  Medium Office Lighting Winter Design Day Schedule, !- Name
  ,                                       !- Schedule Type Limits Name
  ,                                       !- Interpolate to Timestep
  24,                                     !- Hour 1
  0,                                      !- Minute 1
  0;                                      !- Value Until Time 1

OS:Schedule:Day,
  {e9d9970c-1b3c-48f3-827e-51b3cec16467}, !- Handle
  Medium Office Lighting Winter Design Day Schedule 1, !- Name
  {c560875c-c5c4-48a5-ab4b-1d0a117d83bc}, !- Schedule Type Limits Name
  ,                                       !- Interpolate to Timestep
  24,                                     !- Hour 1
  0,                                      !- Minute 1
  0;                                      !- Value Until Time 1

OS:Schedule:Rule,
  {d9f9a6a9-265a-48ea-a900-35542e783566}, !- Handle
  Medium Office Lighting Schedule Weekdays Rule, !- Name
  {94b0f70d-33f5-4359-934f-e2e68aecdbbe}, !- Schedule Ruleset Name
  1,                                      !- Rule Order
  {63fc1098-ce3d-4a87-8c21-58da09b89491}, !- Day Schedule Name
  ,                                       !- Apply Sunday
  Yes,                                    !- Apply Monday
  Yes,                                    !- Apply Tuesday
  Yes,                                    !- Apply Wednesday
  Yes,                                    !- Apply Thursday
  Yes;                                    !- Apply Friday

OS:Schedule:Day,
  {63fc1098-ce3d-4a87-8c21-58da09b89491}, !- Handle
  Medium Office Lighting Weekdays Schedule, !- Name
  {c560875c-c5c4-48a5-ab4b-1d0a117d83bc}, !- Schedule Type Limits Name
  ,                                       !- Interpolate to Timestep
  5,                                      !- Hour 1
  0,                                      !- Minute 1
  0.05,                                   !- Value Until Time 1
  7,                                      !- Hour 2
  0,                                      !- Minute 2
  0.1,                                    !- Value Until Time 2
  8,                                      !- Hour 3
  0,                                      !- Minute 3
  0.3,                                    !- Value Until Time 3
  17,                                     !- Hour 4
  0,                                      !- Minute 4
  0.9,                                    !- Value Until Time 4
  18,                                     !- Hour 5
  0,                                      !- Minute 5
  0.7,                                    !- Value Until Time 5
  20,                                     !- Hour 6
  0,                                      !- Minute 6
  0.5,                                    !- Value Until Time 6
  22,                                     !- Hour 7
  0,                                      !- Minute 7
  0.3,                                    !- Value Until Time 7
  23,                                     !- Hour 8
  0,                                      !- Minute 8
  0.1,                                    !- Value Until Time 8
  24,                                     !- Hour 9
  0,                                      !- Minute 9
  0.05;                                   !- Value Until Time 9

OS:Schedule:Rule,
  {24c12391-f6a2-4955-b42b-401d85b23576}, !- Handle
  Medium Office Lighting Schedule Saturday Rule, !- Name
  {94b0f70d-33f5-4359-934f-e2e68aecdbbe}, !- Schedule Ruleset Name
  0,                                      !- Rule Order
  {00f56804-16be-4b8d-85f4-b9562ef1aeb4}, !- Day Schedule Name
  ,                                       !- Apply Sunday
  ,                                       !- Apply Monday
  ,                                       !- Apply Tuesday
  ,                                       !- Apply Wednesday
  ,                                       !- Apply Thursday
  ,                                       !- Apply Friday
  Yes;                                    !- Apply Saturday

OS:Schedule:Day,
  {00f56804-16be-4b8d-85f4-b9562ef1aeb4}, !- Handle
  Medium Office Lighting Saturday Schedule, !- Name
  {c560875c-c5c4-48a5-ab4b-1d0a117d83bc}, !- Schedule Type Limits Name
  ,                                       !- Interpolate to Timestep
  6,                                      !- Hour 1
  0,                                      !- Minute 1
  0.05,                                   !- Value Until Time 1
  8,                                      !- Hour 2
  0,                                      !- Minute 2
  0.1,                                    !- Value Until Time 2
  14,                                     !- Hour 3
  0,                                      !- Minute 3
  0.5,                                    !- Value Until Time 3
  17,                                     !- Hour 4
  0,                                      !- Minute 4
  0.15,                                   !- Value Until Time 4
  24,                                     !- Hour 5
  0,                                      !- Minute 5
  0.05;                                   !- Value Until Time 5

OS:Schedule:Ruleset,
  {c34978b1-3e2f-463c-9cf8-a5b05679bd2f}, !- Handle
  Medium Office Electric Equipment Schedule, !- Name
  {c560875c-c5c4-48a5-ab4b-1d0a117d83bc}, !- Schedule Type Limits Name
  {7d370349-f3c2-4c4e-8e8f-b15ae155ae29}, !- Default Day Schedule Name
  {80c89b82-ad6d-40eb-a503-c59eec1f8d1c}, !- Summer Design Day Schedule Name
  {dc097c96-d9a0-4fa5-acff-d0caa8156907}; !- Winter Design Day Schedule Name

OS:Schedule:Day,
  {7d370349-f3c2-4c4e-8e8f-b15ae155ae29}, !- Handle
  Medium Office Electric Equipment All Other Days Schedule, !- Name
  {c560875c-c5c4-48a5-ab4b-1d0a117d83bc}, !- Schedule Type Limits Name
  ,                                       !- Interpolate to Timestep
  24,                                     !- Hour 1
  0,                                      !- Minute 1
  0.3;                                    !- Value Until Time 1

OS:Schedule:Day,
  {f1568b81-06f7-4786-9eb6-08bfc557d70b}, !- Handle
  Medium Office Electric Equipment Summer Design Day Schedule, !- Name
  ,                                       !- Schedule Type Limits Name
  ,                                       !- Interpolate to Timestep
  6,                                      !- Hour 1
  0,                                      !- Minute 1
  1,                                      !- Value Until Time 1
  24,                                     !- Hour 2
  0,                                      !- Minute 2
  0;                                      !- Value Until Time 2

OS:Schedule:Day,
  {80c89b82-ad6d-40eb-a503-c59eec1f8d1c}, !- Handle
  Medium Office Electric Equipment Summer Design Day Schedule 1, !- Name
  {c560875c-c5c4-48a5-ab4b-1d0a117d83bc}, !- Schedule Type Limits Name
  ,                                       !- Interpolate to Timestep
  6,                                      !- Hour 1
  0,                                      !- Minute 1
  1,                                      !- Value Until Time 1
  24,                                     !- Hour 2
  0,                                      !- Minute 2
  0;                                      !- Value Until Time 2

OS:Schedule:Day,
  {db0c5493-774a-45d6-8a44-6d1f87686fde}, !- Handle
  Medium Office Electric Equipment Winter Design Day Schedule, !- Name
  ,                                       !- Schedule Type Limits Name
  ,                                       !- Interpolate to Timestep
  24,                                     !- Hour 1
  0,                                      !- Minute 1
  0;                                      !- Value Until Time 1

OS:Schedule:Day,
  {dc097c96-d9a0-4fa5-acff-d0caa8156907}, !- Handle
  Medium Office Electric Equipment Winter Design Day Schedule 1, !- Name
  {c560875c-c5c4-48a5-ab4b-1d0a117d83bc}, !- Schedule Type Limits Name
  ,                                       !- Interpolate to Timestep
  24,                                     !- Hour 1
  0,                                      !- Minute 1
  0;                                      !- Value Until Time 1

OS:Schedule:Rule,
  {4c1a3e47-80d7-4140-9c8e-1feb9aa289ec}, !- Handle
  Medium Office Electric Equipment Schedule Weekdays Rule, !- Name
  {c34978b1-3e2f-463c-9cf8-a5b05679bd2f}, !- Schedule Ruleset Name
  1,                                      !- Rule Order
  {aff52f46-74d5-45df-9339-56a86be110cf}, !- Day Schedule Name
  ,                                       !- Apply Sunday
  Yes,                                    !- Apply Monday
  Yes,                                    !- Apply Tuesday
  Yes,                                    !- Apply Wednesday
  Yes,                                    !- Apply Thursday
  Yes;                                    !- Apply Friday

OS:Schedule:Day,
  {aff52f46-74d5-45df-9339-56a86be110cf}, !- Handle
  Medium Office Electric Equipment Weekdays Schedule, !- Name
  {c560875c-c5c4-48a5-ab4b-1d0a117d83bc}, !- Schedule Type Limits Name
  ,                                       !- Interpolate to Timestep
  8,                                      !- Hour 1
  0,                                      !- Minute 1
  0.4,                                    !- Value Until Time 1
  12,                                     !- Hour 2
  0,                                      !- Minute 2
  0.9,                                    !- Value Until Time 2
  13,                                     !- Hour 3
  0,                                      !- Minute 3
  0.8,                                    !- Value Until Time 3
  17,                                     !- Hour 4
  0,                                      !- Minute 4
  0.9,                                    !- Value Until Time 4
  18,                                     !- Hour 5
  0,                                      !- Minute 5
  0.8,                                    !- Value Until Time 5
  20,                                     !- Hour 6
  0,                                      !- Minute 6
  0.6,                                    !- Value Until Time 6
  22,                                     !- Hour 7
  0,                                      !- Minute 7
  0.5,                                    !- Value Until Time 7
  24,                                     !- Hour 8
  0,                                      !- Minute 8
  0.4;                                    !- Value Until Time 8

OS:Schedule:Rule,
  {f096aa3c-a697-40f8-b8bd-a7686ccc22ee}, !- Handle
  Medium Office Electric Equipment Schedule Saturday Rule, !- Name
  {c34978b1-3e2f-463c-9cf8-a5b05679bd2f}, !- Schedule Ruleset Name
  0,                                      !- Rule Order
  {3e174524-2152-4e62-a441-7916f62c82b6}, !- Day Schedule Name
  ,                                       !- Apply Sunday
  ,                                       !- Apply Monday
  ,                                       !- Apply Tuesday
  ,                                       !- Apply Wednesday