
OS:Version,
  {0ae5efa8-d976-4798-9722-3d9c243623b0}, !- Handle
  3.2.1;                                  !- Version Identifier

OS:AirLoopHVAC,
  {69bca42c-42fe-497c-ae3b-be3470f758b4}, !- Handle
  Air Loop HVAC 1,                        !- Name
  ,                                       !- Controller List Name
  {1edbe257-8985-48dd-ae22-6d374ecf7334}, !- Availability Schedule
  {18f22b5e-7d5c-48dc-b2f6-c6e09bea641b}, !- Availability Manager List Name
  autosize,                               !- Design Supply Air Flow Rate {m3/s}
  1,                                      !- Design Return Air Flow Fraction of Supply Air Flow
  ,                                       !- Branch List Name
  ,                                       !- Connector List Name
  {32d28145-efa5-4ded-9007-bf045f085345}, !- Supply Side Inlet Node Name
  {dd360407-3ab5-409a-8f6b-c696917e3583}, !- Demand Side Outlet Node Name
  {0001f8e7-7b20-4678-a6f5-34160121ea0f}, !- Demand Side Inlet Node A
  {a4f66349-63c1-434a-8ba1-a9b23552a6c4}, !- Supply Side Outlet Node A
  ,                                       !- Demand Side Inlet Node B
  ,                                       !- Supply Side Outlet Node B
  ,                                       !- Return Air Bypass Flow Temperature Setpoint Schedule Name
  {50ae71f1-866d-4cf8-a8d3-09158eae7606}, !- Demand Mixer Name
  {bdb053a5-c2aa-4b88-8ff3-405c4cd3188f}, !- Demand Splitter A Name
  ,                                       !- Demand Splitter B Name
  ;                                       !- Supply Splitter Name

OS:Node,
  {db1831f3-102a-4b9d-bca9-5758c1ccca15}, !- Handle
  Node 1,                                 !- Name
  {32d28145-efa5-4ded-9007-bf045f085345}, !- Inlet Port
  {ad21acaf-1e25-4432-8d2e-18eb31643dbc}; !- Outlet Port

OS:Node,
  {96a1f97a-401b-48d3-b7d6-188442bce60b}, !- Handle
  Node 2,                                 !- Name
  {ad21acaf-1e25-4432-8d2e-18eb31643dbc}, !- Inlet Port
  {a4f66349-63c1-434a-8ba1-a9b23552a6c4}; !- Outlet Port

OS:Connection,
  {32d28145-efa5-4ded-9007-bf045f085345}, !- Handle
  {69bca42c-42fe-497c-ae3b-be3470f758b4}, !- Source Object
  9,                                      !- Outlet Port
  {db1831f3-102a-4b9d-bca9-5758c1ccca15}, !- Target Object
  2;                                      !- Inlet Port

OS:Connection,
  {ad21acaf-1e25-4432-8d2e-18eb31643dbc}, !- Handle
  {db1831f3-102a-4b9d-bca9-5758c1ccca15}, !- Source Object
  3,                                      !- Outlet Port
  {96a1f97a-401b-48d3-b7d6-188442bce60b}, !- Target Object
  2;                                      !- Inlet Port

OS:Connection,
  {a4f66349-63c1-434a-8ba1-a9b23552a6c4}, !- Handle
  {96a1f97a-401b-48d3-b7d6-188442bce60b}, !- Source Object
  3,                                      !- Outlet Port
  {69bca42c-42fe-497c-ae3b-be3470f758b4}, !- Target Object
  12;                                     !- Inlet Port

OS:Node,
  {0200a0d7-5e35-4024-b30c-ab913c1bbbe0}, !- Handle
  Node 3,                                 !- Name
  {0001f8e7-7b20-4678-a6f5-34160121ea0f}, !- Inlet Port
  {ba5e38fe-9cb8-4910-8a35-dcf266d0ca7c}; !- Outlet Port

OS:Node,
  {120056c8-27ea-4e59-9459-12e5321a982c}, !- Handle
  Node 4,                                 !- Name
  {3d4c6afa-388c-4e20-bfb4-6ad382cd70e2}, !- Inlet Port
  {dd360407-3ab5-409a-8f6b-c696917e3583}; !- Outlet Port

OS:Node,
  {2fb33635-71b9-464d-886c-5e81ea585e6a}, !- Handle
  ATU InletSideMixer Outlet to FC Inlet Node, !- Name
  {8aa6643c-6c8a-43e9-b003-ee7385cde700}, !- Inlet Port
  {700158f0-d551-457d-be6b-14f103859817}; !- Outlet Port

OS:Connection,
  {0001f8e7-7b20-4678-a6f5-34160121ea0f}, !- Handle
  {69bca42c-42fe-497c-ae3b-be3470f758b4}, !- Source Object
  11,                                     !- Outlet Port
  {0200a0d7-5e35-4024-b30c-ab913c1bbbe0}, !- Target Object
  2;                                      !- Inlet Port

OS:Connection,
  {dd360407-3ab5-409a-8f6b-c696917e3583}, !- Handle
  {120056c8-27ea-4e59-9459-12e5321a982c}, !- Source Object
  3,                                      !- Outlet Port
  {69bca42c-42fe-497c-ae3b-be3470f758b4}, !- Target Object
  10;                                     !- Inlet Port

OS:AirLoopHVAC:ZoneSplitter,
  {bdb053a5-c2aa-4b88-8ff3-405c4cd3188f}, !- Handle
  Air Loop HVAC Zone Splitter 1,          !- Name
  {ba5e38fe-9cb8-4910-8a35-dcf266d0ca7c}, !- Inlet Node Name
  {633e2396-be0f-4cc5-a09f-1ada924b60a1}; !- Outlet Node Name 1

OS:AirLoopHVAC:ZoneMixer,
  {50ae71f1-866d-4cf8-a8d3-09158eae7606}, !- Handle
  Air Loop HVAC Zone Mixer 1,             !- Name
  {3d4c6afa-388c-4e20-bfb4-6ad382cd70e2}, !- Outlet Node Name
  {695e0e4a-0d3a-4c5e-b364-69bc68f577e5}; !- Inlet Node Name 1

OS:Connection,
  {ba5e38fe-9cb8-4910-8a35-dcf266d0ca7c}, !- Handle
  {0200a0d7-5e35-4024-b30c-ab913c1bbbe0}, !- Source Object
  3,                                      !- Outlet Port
  {bdb053a5-c2aa-4b88-8ff3-405c4cd3188f}, !- Target Object
  2;                                      !- Inlet Port

OS:Connection,
  {3d4c6afa-388c-4e20-bfb4-6ad382cd70e2}, !- Handle
  {50ae71f1-866d-4cf8-a8d3-09158eae7606}, !- Source Object
  2,                                      !- Outlet Port
  {120056c8-27ea-4e59-9459-12e5321a982c}, !- Target Object
  2;                                      !- Inlet Port

OS:Sizing:System,
  {500b0d5d-2945-4fc8-85bd-f1126a58280b}, !- Handle
  {69bca42c-42fe-497c-ae3b-be3470f758b4}, !- AirLoop Name
  Sensible,                               !- Type of Load to Size On
  Autosize,                               !- Design Outdoor Air Flow Rate {m3/s}
  0.3,                                    !- Central Heating Maximum System Air Flow Ratio
  7,                                      !- Preheat Design Temperature {C}
  0.008,                                  !- Preheat Design Humidity Ratio {kg-H2O/kg-Air}
  12.8,                                   !- Precool Design Temperature {C}
  0.008,                                  !- Precool Design Humidity Ratio {kg-H2O/kg-Air}
  12.8,                                   !- Central Cooling Design Supply Air Temperature {C}
  16.7,                                   !- Central Heating Design Supply Air Temperature {C}
  NonCoincident,                          !- Sizing Option
  Yes,                                    !- 100% Outdoor Air in Cooling
  Yes,                                    !- 100% Outdoor Air in Heating
  0.0085,                                 !- Central Cooling Design Supply Air Humidity Ratio {kg-H2O/kg-Air}
  0.008,                                  !- Central Heating Design Supply Air Humidity Ratio {kg-H2O/kg-Air}
  DesignDay,                              !- Cooling Design Air Flow Method
  0,                                      !- Cooling Design Air Flow Rate {m3/s}
  DesignDay,                              !- Heating Design Air Flow Method
  0,                                      !- Heating Design Air Flow Rate {m3/s}
  ZoneSum,                                !- System Outdoor Air Method
  1,                                      !- Zone Maximum Outdoor Air Fraction {dimensionless}
  0.0099676501,                           !- Cooling Supply Air Flow Rate Per Floor Area {m3/s-m2}
  1,                                      !- Cooling Fraction of Autosized Cooling Supply Air Flow Rate
  3.9475456e-05,                          !- Cooling Supply Air Flow Rate Per Unit Cooling Capacity {m3/s-W}
  0.0099676501,                           !- Heating Supply Air Flow Rate Per Floor Area {m3/s-m2}
  1,                                      !- Heating Fraction of Autosized Heating Supply Air Flow Rate
  1,                                      !- Heating Fraction of Autosized Cooling Supply Air Flow Rate
  3.1588213e-05,                          !- Heating Supply Air Flow Rate Per Unit Heating Capacity {m3/s-W}
  CoolingDesignCapacity,                  !- Cooling Design Capacity Method
  autosize,                               !- Cooling Design Capacity {W}
  234.7,                                  !- Cooling Design Capacity Per Floor Area {W/m2}
  1,                                      !- Fraction of Autosized Cooling Design Capacity
  HeatingDesignCapacity,                  !- Heating Design Capacity Method
  autosize,                               !- Heating Design Capacity {W}
  157,                                    !- Heating Design Capacity Per Floor Area {W/m2}
  1,                                      !- Fraction of Autosized Heating Design Capacity
  OnOff;                                  !- Central Cooling Capacity Control Method

OS:Schedule:Constant,
  {1edbe257-8985-48dd-ae22-6d374ecf7334}, !- Handle
  Always On Discrete,                     !- Name
  {9b1e67a0-5e5a-44e0-a474-d647b8beeacd}, !- Schedule Type Limits Name
  1;                                      !- Value

OS:ScheduleTypeLimits,
  {9b1e67a0-5e5a-44e0-a474-d647b8beeacd}, !- Handle
  OnOff,                                  !- Name
  0,                                      !- Lower Limit Value
  1,                                      !- Upper Limit Value
  Discrete,                               !- Numeric Type
  Availability;                           !- Unit Type

OS:AvailabilityManagerAssignmentList,
  {18f22b5e-7d5c-48dc-b2f6-c6e09bea641b}, !- Handle
  Air Loop HVAC 1 AvailabilityManagerAssignmentList; !- Name

OS:ThermalZone,
  {9a62323b-bba0-4b82-8648-663e6ae96405}, !- Handle
  Thermal Zone 1,                         !- Name
  ,                                       !- Multiplier
  ,                                       !- Ceiling Height {m}
  ,                                       !- Volume {m3}
  ,                                       !- Floor Area {m2}
  ,                                       !- Zone Inside Convection Algorithm
  ,                                       !- Zone Outside Convection Algorithm
  ,                                       !- Zone Conditioning Equipment List Name
  {31825a3d-98af-46a3-8d5a-c87c86bc33c9}, !- Zone Air Inlet Port List
  {d37556ae-f86c-4ccf-904a-ac861e40812c}, !- Zone Air Exhaust Port List
  {0be2b6cd-6c26-4ac9-b99f-c66050fe4c12}, !- Zone Air Node Name
  {c5529a1f-428d-4d95-abcb-d28fc61cf9d2}, !- Zone Return Air Port List
  ,                                       !- Primary Daylighting Control Name
  ,                                       !- Fraction of Zone Controlled by Primary Daylighting Control
  ,                                       !- Secondary Daylighting Control Name
  ,                                       !- Fraction of Zone Controlled by Secondary Daylighting Control
  ,                                       !- Illuminance Map Name
  ,                                       !- Group Rendering Name
  ,                                       !- Thermostat Name
  No;                                     !- Use Ideal Air Loads

OS:Node,
  {5e31cf71-7af9-4e8b-ba86-26e646025598}, !- Handle
  Zone Air Node,                          !- Name
  {0be2b6cd-6c26-4ac9-b99f-c66050fe4c12}, !- Inlet Port
  ;                                       !- Outlet Port

OS:Connection,
  {0be2b6cd-6c26-4ac9-b99f-c66050fe4c12}, !- Handle
  {9a62323b-bba0-4b82-8648-663e6ae96405}, !- Source Object
  11,                                     !- Outlet Port
  {5e31cf71-7af9-4e8b-ba86-26e646025598}, !- Target Object
  2;                                      !- Inlet Port

OS:PortList,
  {31825a3d-98af-46a3-8d5a-c87c86bc33c9}, !- Handle
  {9a62323b-bba0-4b82-8648-663e6ae96405}, !- HVAC Component
  {ffd97f28-ff48-46c9-b408-9b133671cd0a}; !- Port 1

OS:PortList,
  {d37556ae-f86c-4ccf-904a-ac861e40812c}, !- Handle
  {9a62323b-bba0-4b82-8648-663e6ae96405}, !- HVAC Component
  {11bbbd99-ba0d-43d6-89a5-357ccea143bd}; !- Port 1

OS:PortList,
  {c5529a1f-428d-4d95-abcb-d28fc61cf9d2}, !- Handle
  {9a62323b-bba0-4b82-8648-663e6ae96405}, !- HVAC Component
  {2ef602ab-ed42-4d9d-8398-7664564f3432}; !- Port 1

OS:Sizing:Zone,
  {cc1624be-c9a9-4e80-adac-66a4311404f6}, !- Handle
  {9a62323b-bba0-4b82-8648-663e6ae96405}, !- Zone or ZoneList Name
  SupplyAirTemperature,                   !- Zone Cooling Design Supply Air Temperature Input Method
  14,                                     !- Zone Cooling Design Supply Air Temperature {C}
  11.11,                                  !- Zone Cooling Design Supply Air Temperature Difference {deltaC}
  SupplyAirTemperature,                   !- Zone Heating Design Supply Air Temperature Input Method
  40,                                     !- Zone Heating Design Supply Air Temperature {C}
  11.11,                                  !- Zone Heating Design Supply Air Temperature Difference {deltaC}
  0.0085,                                 !- Zone Cooling Design Supply Air Humidity Ratio {kg-H2O/kg-air}
  0.008,                                  !- Zone Heating Design Supply Air Humidity Ratio {kg-H2O/kg-air}
  ,                                       !- Zone Heating Sizing Factor
  ,                                       !- Zone Cooling Sizing Factor
  DesignDay,                              !- Cooling Design Air Flow Method
  ,                                       !- Cooling Design Air Flow Rate {m3/s}
  ,                                       !- Cooling Minimum Air Flow per Zone Floor Area {m3/s-m2}
  ,                                       !- Cooling Minimum Air Flow {m3/s}
  ,                                       !- Cooling Minimum Air Flow Fraction
  DesignDay,                              !- Heating Design Air Flow Method
  ,                                       !- Heating Design Air Flow Rate {m3/s}
  ,                                       !- Heating Maximum Air Flow per Zone Floor Area {m3/s-m2}
  ,                                       !- Heating Maximum Air Flow {m3/s}
  ,                                       !- Heating Maximum Air Flow Fraction
  No,                                     !- Account for Dedicated Outdoor Air System
  NeutralSupplyAir,                       !- Dedicated Outdoor Air System Control Strategy
  autosize,                               !- Dedicated Outdoor Air Low Setpoint Temperature for Design {C}
  autosize;                               !- Dedicated Outdoor Air High Setpoint Temperature for Design {C}

OS:ZoneHVAC:EquipmentList,
  {e1184c29-31b5-440e-9c26-88eb0ae031ad}, !- Handle
  Zone HVAC Equipment List 1,             !- Name
  {9a62323b-bba0-4b82-8648-663e6ae96405}, !- Thermal Zone
  ,                                       !- Load Distribution Scheme
  {63154790-80f5-4598-bc2c-179b06994fae}, !- Zone Equipment 1
  2,                                      !- Zone Equipment Cooling Sequence 1
  2,                                      !- Zone Equipment Heating or No-Load Sequence 1
  ,                                       !- Zone Equipment Sequential Cooling Fraction Schedule Name 1
  ,                                       !- Zone Equipment Sequential Heating Fraction Schedule Name 1
  {6e0fc149-4a02-4706-b54f-b9a5c0cda0de}, !- Zone Equipment 2
  1,                                      !- Zone Equipment Cooling Sequence 2
  1,                                      !- Zone Equipment Heating or No-Load Sequence 2
  ,                                       !- Zone Equipment Sequential Cooling Fraction Schedule Name 2
  ;                                       !- Zone Equipment Sequential Heating Fraction Schedule Name 2

OS:AirTerminal:SingleDuct:InletSideMixer,
  {63154790-80f5-4598-bc2c-179b06994fae}, !- Handle
  Air Terminal Single Duct Inlet Side Mixer 1, !- Name
  {8aa6643c-6c8a-43e9-b003-ee7385cde700}, !- Terminal Unit Outlet
  {86599d67-3cf9-4598-887a-cee1426ab2b1}, !- Terminal Unit Primary Air Inlet
  {16e422c7-818e-46d2-a031-d98ed5e3e83a}; !- Terminal Unit Secondary Air Inlet

OS:Node,
  {50f74d52-9b2f-486d-bc12-aa07eb7a4957}, !- Handle
  Zone Return Air Node,                   !- Name
  {2ef602ab-ed42-4d9d-8398-7664564f3432}, !- Inlet Port
  {695e0e4a-0d3a-4c5e-b364-69bc68f577e5}; !- Outlet Port

OS:Connection,
  {2ef602ab-ed42-4d9d-8398-7664564f3432}, !- Handle
  {c5529a1f-428d-4d95-abcb-d28fc61cf9d2}, !- Source Object
  2,                                      !- Outlet Port
  {50f74d52-9b2f-486d-bc12-aa07eb7a4957}, !- Target Object
  2;                                      !- Inlet Port

OS:Connection,
  {695e0e4a-0d3a-4c5e-b364-69bc68f577e5}, !- Handle
  {50f74d52-9b2f-486d-bc12-aa07eb7a4957}, !- Source Object
  3,                                      !- Outlet Port
  {50ae71f1-866d-4cf8-a8d3-09158eae7606}, !- Target Object
  3;                                      !- Inlet Port

OS:Node,
  {1b4eeed0-5685-48d0-b111-258729a374f5}, !- Handle
  ATU InletSideMixer Inlet Node,          !- Name
  {633e2396-be0f-4cc5-a09f-1ada924b60a1}, !- Inlet Port
  {86599d67-3cf9-4598-887a-cee1426ab2b1}; !- Outlet Port

OS:Connection,
  {633e2396-be0f-4cc5-a09f-1ada924b60a1}, !- Handle
  {bdb053a5-c2aa-4b88-8ff3-405c4cd3188f}, !- Source Object
  3,                                      !- Outlet Port
  {1b4eeed0-5685-48d0-b111-258729a374f5}, !- Target Object
  2;                                      !- Inlet Port

OS:Connection,
  {86599d67-3cf9-4598-887a-cee1426ab2b1}, !- Handle
  {1b4eeed0-5685-48d0-b111-258729a374f5}, !- Source Object
  3,                                      !- Outlet Port
  {63154790-80f5-4598-bc2c-179b06994fae}, !- Target Object
  3;                                      !- Inlet Port

OS:Connection,
  {8aa6643c-6c8a-43e9-b003-ee7385cde700}, !- Handle
  {63154790-80f5-4598-bc2c-179b06994fae}, !- Source Object
  2,                                      !- Outlet Port
  {2fb33635-71b9-464d-886c-5e81ea585e6a}, !- Target Object
  2;                                      !- Inlet Port

OS:Fan:ConstantVolume,
  {bc89f2b8-43d6-47a7-b450-cb11d3d336aa}, !- Handle
  Fan Constant Volume 1,                  !- Name
  {1edbe257-8985-48dd-ae22-6d374ecf7334}, !- Availability Schedule Name
  ,                                       !- Fan Total Efficiency
  ,                                       !- Pressure Rise {Pa}
  AutoSize,                               !- Maximum Flow Rate {m3/s}
  ,                                       !- Motor Efficiency
  ,                                       !- Motor In Airstream Fraction
  ,                                       !- Air Inlet Node Name
  ,                                       !- Air Outlet Node Name
  ;                                       !- End-Use Subcategory

OS:Coil:Heating:Water,
  {7b17cb7a-e18a-466f-8f7a-426c7ebc820f}, !- Handle
  Coil Heating Water 1,                   !- Name
  {1edbe257-8985-48dd-ae22-6d374ecf7334}, !- Availability Schedule Name
  ,                                       !- U-Factor Times Area Value {W/K}
  ,                                       !- Maximum Water Flow Rate {m3/s}
  ,                                       !- Water Inlet Node Name
  ,                                       !- Water Outlet Node Name
  ,                                       !- Air Inlet Node Name
  ,                                       !- Air Outlet Node Name
  ,                                       !- Performance Input Method
  ,                                       !- Rated Capacity {W}
  ,                                       !- Rated Inlet Water Temperature {C}
  ,                                       !- Rated Inlet Air Temperature {C}
  ,                                       !- Rated Outlet Water Temperature {C}
  ,                                       !- Rated Outlet Air Temperature {C}
  ;                                       !- Rated Ratio for Air and Water Convection

OS:Coil:Cooling:Water,
  {747997de-dccf-474d-989e-f4a700b18616}, !- Handle
  Coil Cooling Water 1,                   !- Name
  {1edbe257-8985-48dd-ae22-6d374ecf7334}, !- Availability Schedule Name
  ,                                       !- Design Water Flow Rate {m3/s}
  ,                                       !- Design Air Flow Rate {m3/s}
  ,                                       !- Design Inlet Water Temperature {C}
  ,                                       !- Design Inlet Air Temperature {C}
  ,                                       !- Design Outlet Air Temperature {C}
  ,                                       !- Design Inlet Air Humidity Ratio {kg-H2O/kg-air}
  ,                                       !- Design Outlet Air Humidity Ratio {kg-H2O/kg-air}
  ,                                       !- Water Inlet Node Name
  ,                                       !- Water Outlet Node Name
  ,                                       !- Air Inlet Node Name
  ,                                       !- Air Outlet Node Name
  ,                                       !- Type of Analysis
  ;                                       !- Heat Exchanger Configuration

OS:ZoneHVAC:FourPipeFanCoil,
  {6e0fc149-4a02-4706-b54f-b9a5c0cda0de}, !- Handle
  Zone HVAC Four Pipe Fan Coil 1,         !- Name
  {1edbe257-8985-48dd-ae22-6d374ecf7334}, !- Availability Schedule Name
  ConstantFanVariableFlow,                !- Capacity Control Method
  autosize,                               !- Maximum Supply Air Flow Rate {m3/s}
  ,                                       !- Low Speed Supply Air Flow Ratio
  ,                                       !- Medium Speed Supply Air Flow Ratio
  autosize,                               !- Maximum Outdoor Air Flow Rate {m3/s}
  ,                                       !- Outdoor Air Schedule Name
  {700158f0-d551-457d-be6b-14f103859817}, !- Air Inlet Node Name
  {d23f01d5-8f99-4815-9dd6-9a8174a7065f}, !- Air Outlet Node Name
  OutdoorAir:Mixer,                       !- Outdoor Air Mixer Object Type
  ,                                       !- Outdoor Air Mixer Name
  {bc89f2b8-43d6-47a7-b450-cb11d3d336aa}, !- Supply Air Fan Name
  {747997de-dccf-474d-989e-f4a700b18616}, !- Cooling Coil Name
  autosize,                               !- Maximum Cold Water Flow Rate {m3/s}
  ,                                       !- Minimum Cold Water Flow Rate {m3/s}
  ,                                       !- Cooling Convergence Tolerance
  {7b17cb7a-e18a-466f-8f7a-426c7ebc820f}, !- Heating Coil Name
  autosize,                               !- Maximum Hot Water Flow Rate {m3/s}
  ,                                       !- Minimum Hot Water Flow Rate {m3/s}
  ,                                       !- Heating Convergence Tolerance
  ,                                       !- Supply Air Fan Operating Mode Schedule Name
  autosize,                               !- Minimum Supply Air Temperature in Cooling Mode {C}
  autosize;                               !- Maximum Supply Air Temperature in Heating Mode {C}

OS:Node,
  {cace5b22-ac24-426e-b673-d7b416705324}, !- Handle
  FC Outlet Node,                         !- Name
  {d23f01d5-8f99-4815-9dd6-9a8174a7065f}, !- Inlet Port
  {ffd97f28-ff48-46c9-b408-9b133671cd0a}; !- Outlet Port

OS:Connection,
  {700158f0-d551-457d-be6b-14f103859817}, !- Handle
  {2fb33635-71b9-464d-886c-5e81ea585e6a}, !- Source Object
  3,                                      !- Outlet Port
  {6e0fc149-4a02-4706-b54f-b9a5c0cda0de}, !- Target Object
  9;                                      !- Inlet Port

OS:Connection,
  {d23f01d5-8f99-4815-9dd6-9a8174a7065f}, !- Handle
  {6e0fc149-4a02-4706-b54f-b9a5c0cda0de}, !- Source Object
  10,                                     !- Outlet Port
  {cace5b22-ac24-426e-b673-d7b416705324}, !- Target Object
  2;                                      !- Inlet Port

OS:Connection,
  {ffd97f28-ff48-46c9-b408-9b133671cd0a}, !- Handle
  {cace5b22-ac24-426e-b673-d7b416705324}, !- Source Object
  3,                                      !- Outlet Port
  {31825a3d-98af-46a3-8d5a-c87c86bc33c9}, !- Target Object
  2;                                      !- Inlet Port

OS:Node,
  {9e6fecee-852f-4d8e-a60d-61b40fa1b4b5}, !- Handle
  Zone Exhaust Air Node,                  !- Name
  {11bbbd99-ba0d-43d6-89a5-357ccea143bd}, !- Inlet Port
  {16e422c7-818e-46d2-a031-d98ed5e3e83a}; !- Outlet Port

OS:Connection,
  {11bbbd99-ba0d-43d6-89a5-357ccea143bd}, !- Handle
  {d37556ae-f86c-4ccf-904a-ac861e40812c}, !- Source Object
  2,                                      !- Outlet Port
  {9e6fecee-852f-4d8e-a60d-61b40fa1b4b5}, !- Target Object
  2;                                      !- Inlet Port

OS:Connection,
  {16e422c7-818e-46d2-a031-d98ed5e3e83a}, !- Handle
  {9e6fecee-852f-4d8e-a60d-61b40fa1b4b5}, !- Source Object
  3,                                      !- Outlet Port
  {63154790-80f5-4598-bc2c-179b06994fae}, !- Target Object
  4;                                      !- Inlet Port

