
OS:Version,
  {3f6124bd-c912-41f8-8cc1-82e811c90250}, !- Handle
  1.0.7;                                  !- Version Identifier

OS:SimulationControl,
  {fe9f949a-5c53-496c-bc60-0ef4acdc22a5}, !- Handle
  Yes,                                    !- Do Zone Sizing Calculation
  Yes,                                    !- Do System Sizing Calculation
  ,                                       !- Do Plant Sizing Calculation
  No,                                     !- Run Simulation for Sizing Periods
  Yes;                                    !- Run Simulation for Weather File Run Periods

OS:Timestep,
  {06272980-8014-483a-914a-b74708bd6f06}, !- Handle
  6;                                      !- Number of Timesteps per Hour

OS:RunPeriod,
  {921aca43-be82-4131-8436-7f2f3bd6bd6b}, !- Handle
  Run Period 1,                           !- Name
  1,                                      !- Begin Month
  1,                                      !- Begin Day of Month
  12,                                     !- End Month
  31,                                     !- End Day of Month
  No,                                     !- Use Weather File Holidays and Special Days
  No,                                     !- Use Weather File Daylight Saving Period
  No,                                     !- Apply Weekend Holiday Rule
  Yes,                                    !- Use Weather File Rain Indicators
  Yes,                                    !- Use Weather File Snow Indicators
  1;                                      !- Number of Times Runperiod to be Repeated

OS:SurfaceConvectionAlgorithm:Inside,
  {b613ef9a-a2ab-48e1-b38d-649731bc7726}, !- Handle
  TARP;                                   !- Algorithm

OS:SurfaceConvectionAlgorithm:Outside,
  {db06d8e9-d864-4ea2-a3f4-3601bb7d2da7}, !- Handle
  DOE-2;                                  !- Algorithm

OS:HeatBalanceAlgorithm,
  {b2beded6-51f2-411d-8180-23e6713ef729}, !- Handle
  ConductionTransferFunction,             !- Algorithm
  200;                                    !- Surface Temperature Upper Limit {F}

OS:ZoneAirHeatBalanceAlgorithm,
  {00e70c20-2128-450f-b8d8-e4b5b1af8911}, !- Handle
  AnalyticalSolution;                     !- Algorithm

OS:ConvergenceLimits,
  {28153eb0-0fdf-4318-ab5d-b629b2eb97b6}; !- Handle

OS:ShadowCalculation,
  {19b09f0d-6f84-47a2-9a88-e411210a31d0}, !- Handle
  7,                                      !- Calculation Frequency
  15000;                                  !- Maximum Figures in Shadow Overlap Calculations

OS:Site,
  {b0e20b8f-ccdd-4033-9199-5e4777a02678}, !- Handle
  Site 1,                                 !- Name
  41.77,                                  !- Latitude {deg}
  -87.75,                                 !- Longitude {deg}
  -6,                                     !- Time Zone {hr}
  190,                                    !- Elevation {m}
  ;                                       !- Terrain

OS:Site:GroundTemperature:BuildingSurface,
  {8f0904c3-4a02-411e-a6ec-36b602898e1f}, !- Handle
  19.527,                                 !- January Ground Temperature {C}
  19.502,                                 !- February Ground Temperature {C}
  19.536,                                 !- March Ground Temperature {C}
  19.598,                                 !- April Ground Temperature {C}
  20.002,                                 !- May Ground Temperature {C}
  21.64,                                  !- June Ground Temperature {C}
  22.225,                                 !- July Ground Temperature {C}
  22.375,                                 !- August Ground Temperature {C}
  21.449,                                 !- September Ground Temperature {C}
  20.121,                                 !- October Ground Temperature {C}
  19.802,                                 !- November Ground Temperature {C}
  19.633;                                 !- December Ground Temperature {C}

OS:Site:WaterMainsTemperature,
  {b2c20e04-b1bc-4f91-a5f0-caea0c7464c1}, !- Handle
  Correlation,                            !- Calculation Method
  ,                                       !- Temperature Schedule Name
  9.69,                                   !- Annual Average Outdoor Air Temperature {C}
  28.1;                                   !- Maximum Difference In Monthly Average Outdoor Air Temperatures {deltaC}

OS:SizingPeriod:DesignDay,
  {005b222e-bbba-44c9-89f1-79918f88a25c}, !- Handle
  Sizing Period Design Day 1,             !- Name
  -20.6,                                  !- Maximum Dry-Bulb Temperature {C}
  0,                                      !- Daily Dry-Bulb Temperature Range {deltaC}
  -20.6,                                  !- Humidity Indicating Conditions at Maximum Dry-Bulb {BasedOnField A3}
  99063,                                  !- Barometric Pressure {Pa}
  4.9,                                    !- Wind Speed {m/s}
  270,                                    !- Wind Direction {deg}
  0,                                      !- Sky Clearness
  0,                                      !- Rain Indicator
  0,                                      !- Snow Indicator
  21,                                     !- Day of Month
  1,                                      !- Month
  WinterDesignDay,                        !- Day Type
  0,                                      !- Daylight Saving Time Indicator
  WetBulb,                                !- Humidity Indicating Type
  ,                                       !- Humidity Indicating Day Schedule Name
  DefaultMultipliers,                     !- Dry-Bulb Temperature Range Modifier Type
  ,                                       !- Dry-Bulb Temperature Range Modifier Schedule Name
  AshraeClearSky;                         !- Solar Model Indicator

OS:SizingPeriod:DesignDay,
  {03dd74aa-7630-40d2-8973-0746cf530942}, !- Handle
  Sizing Period Design Day 2,             !- Name
  33.2,                                   !- Maximum Dry-Bulb Temperature {C}
  10.7,                                   !- Daily Dry-Bulb Temperature Range {deltaC}
  23.8,                                   !- Humidity Indicating Conditions at Maximum Dry-Bulb {BasedOnField A3}
  99063,                                  !- Barometric Pressure {Pa}
  5.3,                                    !- Wind Speed {m/s}
  230,                                    !- Wind Direction {deg}
  1,                                      !- Sky Clearness
  0,                                      !- Rain Indicator
  0,                                      !- Snow Indicator
  21,                                     !- Day of Month
  7,                                      !- Month
  SummerDesignDay,                        !- Day Type
  0,                                      !- Daylight Saving Time Indicator
  WetBulb,                                !- Humidity Indicating Type
  ,                                       !- Humidity Indicating Day Schedule Name
  DefaultMultipliers,                     !- Dry-Bulb Temperature Range Modifier Type
  ,                                       !- Dry-Bulb Temperature Range Modifier Schedule Name
  AshraeClearSky;                         !- Solar Model Indicator

OS:ScheduleTypeLimits,
  {e9df4974-3496-40d3-b929-cd65ad404a17}, !- Handle
  Temperature,                            !- Name
  -60,                                    !- Lower Limit Value {BasedOnField A4}
  200,                                    !- Upper Limit Value {BasedOnField A4}
  CONTINUOUS,                             !- Numeric Type
  Temperature;                            !- Unit Type

OS:DefaultScheduleSet,
  {83790de4-1460-48c2-a034-70a35b96f6d1}, !- Handle
  Default Schedules,                      !- Name
  ,                                       !- Hours of Operation Schedule Name
  {01483447-8da9-4644-9ea1-cf8699d0dd5e}, !- Number of People Schedule Name
  {9d5156cb-8eed-4e23-8e2b-ddc9177b0f4d}, !- People Activity Level Schedule Name
  {64163f43-30a7-47a2-bc99-60076633944f}, !- Lighting Schedule Name
  {1a773383-9446-48b0-b81f-14e61daea5f2}, !- Electric Equipment Schedule Name
  {facd3d0c-e2ce-459e-adde-a13f9bcf9983}, !- Gas Equipment Schedule Name
  {7cc583ca-6dcc-41a4-a741-6713621bbb53}, !- Hot Water Equipment Schedule Name
  {515135b4-031f-4c43-a6a8-234166a3a24d}, !- Infiltration Schedule Name
  ,                                       !- Steam Equipment Schedule Name
  ;                                       !- Other Equipment Schedule Name

OS:Schedule:Ruleset,
  {01483447-8da9-4644-9ea1-cf8699d0dd5e}, !- Handle
  Medium Office Number of People Schedule, !- Name
  {f09b81ea-fff7-4d81-8ec2-611fc676e8e8}, !- Schedule Type Limits Name
  {e3f0b799-4e81-4112-974e-e7f2fb25c155}, !- Default Day Schedule Name
  {7ba5d792-6e9c-4fc5-b57f-edbeecc10205}; !- Summer Design Day Schedule Name

OS:Schedule:Day,
  {e3f0b799-4e81-4112-974e-e7f2fb25c155}, !- Handle
  Medium Office Number of People All Other Days Schedule, !- Name
  {f09b81ea-fff7-4d81-8ec2-611fc676e8e8}, !- Schedule Type Limits Name
  ,                                       !- Interpolate to Timestep
  24,                                     !- Hour 1
  0,                                      !- Minute 1
  0;                                      !- Value Until Time 1

OS:Schedule:Day,
  {cb2ed973-ee8f-4c10-b00e-d4e0c819b536}, !- Handle
  Medium Office Number of People Summer Design Day Schedule, !- Name
  ,                                       !- Schedule Type Limits Name
  ,                                       !- Interpolate to Timestep
  6,                                      !- Hour 1
  0,                                      !- Minute 1
  0,                                      !- Value Until Time 1
  22,                                     !- Hour 2
  0,                                      !- Minute 2
  1,                                      !- Value Until Time 2
  24,                                     !- Hour 3
  0,                                      !- Minute 3
  0.05;                                   !- Value Until Time 3

OS:Schedule:Day,
  {7ba5d792-6e9c-4fc5-b57f-edbeecc10205}, !- Handle
  Medium Office Number of People Summer Design Day Schedule 1, !- Name
  {f09b81ea-fff7-4d81-8ec2-611fc676e8e8}, !- Schedule Type Limits Name
  ,                                       !- Interpolate to Timestep
  6,                                      !- Hour 1
  0,                                      !- Minute 1
  0,                                      !- Value Until Time 1
  22,                                     !- Hour 2
  0,                                      !- Minute 2
  1,                                      !- Value Until Time 2
  24,                                     !- Hour 3
  0,                                      !- Minute 3
  0.05;                                   !- Value Until Time 3

OS:Schedule:Rule,
  {943cd3f4-e690-4f0d-a02b-5155efa1cab5}, !- Handle
  Medium Office Number of People Schedule Weekdays Rule, !- Name
  {01483447-8da9-4644-9ea1-cf8699d0dd5e}, !- Schedule Ruleset Name
  1,                                      !- Rule Order
  {c866a486-4ec7-4338-9823-244570be77d5}, !- Day Schedule Name
  ,                                       !- Apply Sunday
  Yes,                                    !- Apply Monday
  Yes,                                    !- Apply Tuesday
  Yes,                                    !- Apply Wednesday
  Yes,                                    !- Apply Thursday
  Yes;                                    !- Apply Friday

OS:Schedule:Day,
  {c866a486-4ec7-4338-9823-244570be77d5}, !- Handle
  Medium Office Number of People Weekdays Schedule, !- Name
  {f09b81ea-fff7-4d81-8ec2-611fc676e8e8}, !- Schedule Type Limits Name
  ,                                       !- Interpolate to Timestep
  6,                                      !- Hour 1
  0,                                      !- Minute 1
  0,                                      !- Value Until Time 1
  7,                                      !- Hour 2
  0,                                      !- Minute 2
  0.1,                                    !- Value Until Time 2
  8,                                      !- Hour 3
  0,                                      !- Minute 3
  0.2,                                    !- Value Until Time 3
  12,                                     !- Hour 4
  0,                                      !- Minute 4
  0.95,                                   !- Value Until Time 4
  13,                                     !- Hour 5
  0,                                      !- Minute 5
  0.5,                                    !- Value Until Time 5
  17,                                     !- Hour 6
  0,                                      !- Minute 6
  0.95,                                   !- Value Until Time 6
  18,                                     !- Hour 7
  0,                                      !- Minute 7
  0.7,                                    !- Value Until Time 7
  20,                                     !- Hour 8
  0,                                      !- Minute 8
  0.4,                                    !- Value Until Time 8
  22,                                     !- Hour 9
  0,                                      !- Minute 9
  0.1,                                    !- Value Until Time 9
  24,                                     !- Hour 10
  0,                                      !- Minute 10
  0.05;                                   !- Value Until Time 10

OS:Schedule:Rule,
  {3e306c55-30e1-420b-8559-de8e00639a52}, !- Handle
  Medium Office Number of People Schedule Saturday Rule, !- Name
  {01483447-8da9-4644-9ea1-cf8699d0dd5e}, !- Schedule Ruleset Name
  0,                                      !- Rule Order
  {b1d70fc6-9783-4c5e-bc70-b03e256a4898}, !- Day Schedule Name
  ,                                       !- Apply Sunday
  ,                                       !- Apply Monday
  ,                                       !- Apply Tuesday
  ,                                       !- Apply Wednesday
  ,                                       !- Apply Thursday
  ,                                       !- Apply Friday
  Yes;                                    !- Apply Saturday

OS:Schedule:Day,
  {b1d70fc6-9783-4c5e-bc70-b03e256a4898}, !- Handle
  Medium Office Number of People Saturday Schedule, !- Name
  {f09b81ea-fff7-4d81-8ec2-611fc676e8e8}, !- Schedule Type Limits Name
  ,                                       !- Interpolate to Timestep
  6,                                      !- Hour 1
  0,                                      !- Minute 1
  0,                                      !- Value Until Time 1
  8,                                      !- Hour 2
  0,                                      !- Minute 2
  0.1,                                    !- Value Until Time 2
  14,                                     !- Hour 3
  0,                                      !- Minute 3
  0.5,                                    !- Value Until Time 3
  17,                                     !- Hour 4
  0,                                      !- Minute 4
  0.1,                                    !- Value Until Time 4
  24,                                     !- Hour 5
  0,                                      !- Minute 5
  0;                                      !- Value Until Time 5

OS:ScheduleTypeLimits,
  {f09b81ea-fff7-4d81-8ec2-611fc676e8e8}, !- Handle
  Fractional,                             !- Name
  0,                                      !- Lower Limit Value {BasedOnField A4}
  1,                                      !- Upper Limit Value {BasedOnField A4}
  Continuous;                             !- Numeric Type

OS:Schedule:Ruleset,
  {9d5156cb-8eed-4e23-8e2b-ddc9177b0f4d}, !- Handle
  Medium Office People Activity Level Schedule, !- Name
  {aa3ae00a-7764-45e3-b6bf-d3858f2255e3}, !- Schedule Type Limits Name
  {80e28a11-67ee-4a08-b06e-95d9fa88dfa1}; !- Default Day Schedule Name

OS:Schedule:Day,
  {80e28a11-67ee-4a08-b06e-95d9fa88dfa1}, !- Handle
  Medium Office People Activity Level All Days Schedule, !- Name
  {aa3ae00a-7764-45e3-b6bf-d3858f2255e3}, !- Schedule Type Limits Name
  ,                                       !- Interpolate to Timestep
  24,                                     !- Hour 1
  0,                                      !- Minute 1
  120;                                    !- Value Until Time 1

OS:ScheduleTypeLimits,
  {aa3ae00a-7764-45e3-b6bf-d3858f2255e3}, !- Handle
  ActivityLevel,                          !- Name
  0,                                      !- Lower Limit Value {BasedOnField A4}
  ,                                       !- Upper Limit Value {BasedOnField A4}
  Continuous,                             !- Numeric Type
  ActivityLevel;                          !- Unit Type

OS:Schedule:Ruleset,
  {64163f43-30a7-47a2-bc99-60076633944f}, !- Handle
  Medium Office Lighting Schedule,        !- Name
  {f09b81ea-fff7-4d81-8ec2-611fc676e8e8}, !- Schedule Type Limits Name
  {bd4cf962-e9e5-4262-a0d4-53634548400c}, !- Default Day Schedule Name
  {d5903a3f-1060-416d-a352-bd384134cf44}, !- Summer Design Day Schedule Name
  {4c7819a6-695d-495b-9cf2-c9d81bc08c45}; !- Winter Design Day Schedule Name

OS:Schedule:Day,
  {bd4cf962-e9e5-4262-a0d4-53634548400c}, !- Handle
  Medium Office Lighting All Other Days Schedule, !- Name
  {f09b81ea-fff7-4d81-8ec2-611fc676e8e8}, !- Schedule Type Limits Name
  ,                                       !- Interpolate to Timestep
  24,                                     !- Hour 1
  0,                                      !- Minute 1
  0.05;                                   !- Value Until Time 1

OS:Schedule:Day,
  {2120c6a2-90c6-4e3d-a1ea-2e68deee4318}, !- Handle
  Medium Office Lighting Summer Design Day Schedule, !- Name
  ,                                       !- Schedule Type Limits Name
  ,                                       !- Interpolate to Timestep
  6,                                      !- Hour 1
  0,                                      !- Minute 1
  1,                                      !- Value Until Time 1
  24,                                     !- Hour 2
  0,                                      !- Minute 2
  0;                                      !- Value Until Time 2

OS:Schedule:Day,
  {d5903a3f-1060-416d-a352-bd384134cf44}, !- Handle
  Medium Office Lighting Summer Design Day Schedule 1, !- Name
  {f09b81ea-fff7-4d81-8ec2-611fc676e8e8}, !- Schedule Type Limits Name
  ,                                       !- Interpolate to Timestep
  6,                                      !- Hour 1
  0,                                      !- Minute 1
  1,                                      !- Value Until Time 1
  24,                                     !- Hour 2
  0,                                      !- Minute 2
  0;                                      !- Value Until Time 2

OS:Schedule:Day,
  {f6eabf89-fc22-4ecd-b76b-30f716b2061f}, !- Handle
  Medium Office Lighting Winter Design Day Schedule, !- Name
  ,                                       !- Schedule Type Limits Name
  ,                                       !- Interpolate to Timestep
  24,                                     !- Hour 1
  0,                                      !- Minute 1
  0;                                      !- Value Until Time 1

OS:Schedule:Day,
  {4c7819a6-695d-495b-9cf2-c9d81bc08c45}, !- Handle
  Medium Office Lighting Winter Design Day Schedule 1, !- Name
  {f09b81ea-fff7-4d81-8ec2-611fc676e8e8}, !- Schedule Type Limits Name
  ,                                       !- Interpolate to Timestep
  24,                                     !- Hour 1
  0,                                      !- Minute 1
  0;                                      !- Value Until Time 1

OS:Schedule:Rule,
  {eb64fc73-dc58-49fa-a5cc-1460f698299f}, !- Handle
  Medium Office Lighting Schedule Weekdays Rule, !- Name
  {64163f43-30a7-47a2-bc99-60076633944f}, !- Schedule Ruleset Name
  1,                                      !- Rule Order
  {84875d03-0f5d-4079-a854-82c6042c10c4}, !- Day Schedule Name
  ,                                       !- Apply Sunday
  Yes,                                    !- Apply Monday
  Yes,                                    !- Apply Tuesday
  Yes,                                    !- Apply Wednesday
  Yes,                                    !- Apply Thursday
  Yes;                                    !- Apply Friday

OS:Schedule:Day,
  {84875d03-0f5d-4079-a854-82c6042c10c4}, !- Handle
  Medium Office Lighting Weekdays Schedule, !- Name
  {f09b81ea-fff7-4d81-8ec2-611fc676e8e8}, !- Schedule Type Limits Name
  ,                                       !- Interpolate to Timestep
  5,                                      !- Hour 1
  0,                                      !- Minute 1
  0.05,                                   !- Value Until Time 1
  7,                                      !- Hour 2
  0,                                      !- Minute 2
  0.1,                                    !- Value Until Time 2
  8,                                      !- Hour 3
  0,                                      !- Minute 3
  0.3,                                    !- Value Until Time 3
  17,                                     !- Hour 4
  0,                                      !- Minute 4
  0.9,                                    !- Value Until Time 4
  18,                                     !- Hour 5
  0,                                      !- Minute 5
  0.7,                                    !- Value Until Time 5
  20,                                     !- Hour 6
  0,                                      !- Minute 6
  0.5,                                    !- Value Until Time 6
  22,                                     !- Hour 7
  0,                                      !- Minute 7
  0.3,                                    !- Value Until Time 7
  23,                                     !- Hour 8
  0,                                      !- Minute 8
  0.1,                                    !- Value Until Time 8
  24,                                     !- Hour 9
  0,                                      !- Minute 9
  0.05;                                   !- Value Until Time 9

OS:Schedule:Rule,
  {a8d676b4-cc9e-440b-b2e6-6b7d98df5bef}, !- Handle
  Medium Office Lighting Schedule Saturday Rule, !- Name
  {64163f43-30a7-47a2-bc99-60076633944f}, !- Schedule Ruleset Name
  0,                                      !- Rule Order
  {adaff629-d174-4f56-8e5b-dfcbacd4f85a}, !- Day Schedule Name
  ,                                       !- Apply Sunday
  ,                                       !- Apply Monday
  ,                                       !- Apply Tuesday
  ,                                       !- Apply Wednesday
  ,                                       !- Apply Thursday
  ,                                       !- Apply Friday
  Yes;                                    !- Apply Saturday

OS:Schedule:Day,
  {adaff629-d174-4f56-8e5b-dfcbacd4f85a}, !- Handle
  Medium Office Lighting Saturday Schedule, !- Name
  {f09b81ea-fff7-4d81-8ec2-611fc676e8e8}, !- Schedule Type Limits Name
  ,                                       !- Interpolate to Timestep
  6,                                      !- Hour 1
  0,                                      !- Minute 1
  0.05,                                   !- Value Until Time 1
  8,                                      !- Hour 2
  0,                                      !- Minute 2
  0.1,                                    !- Value Until Time 2
  14,                                     !- Hour 3
  0,                                      !- Minute 3
  0.5,                                    !- Value Until Time 3
  17,                                     !- Hour 4
  0,                                      !- Minute 4
  0.15,                                   !- Value Until Time 4
  24,                                     !- Hour 5
  0,                                      !- Minute 5
  0.05;                                   !- Value Until Time 5

OS:Schedule:Ruleset,
  {1a773383-9446-48b0-b81f-14e61daea5f2}, !- Handle
  Medium Office Electric Equipment Schedule, !- Name
  {f09b81ea-fff7-4d81-8ec2-611fc676e8e8}, !- Schedule Type Limits Name
  {dc6631fd-473a-4375-92e3-dc76819d9e43}, !- Default Day Schedule Name
  {1b0b48d3-67ca-4442-8613-b5e62039c848}, !- Summer Design Day Schedule Name
  {65f20c17-7203-49fd-be6c-2ef091d4b19e}; !- Winter Design Day Schedule Name

OS:Schedule:Day,
  {dc6631fd-473a-4375-92e3-dc76819d9e43}, !- Handle
  Medium Office Electric Equipment All Other Days Schedule, !- Name
  {f09b81ea-fff7-4d81-8ec2-611fc676e8e8}, !- Schedule Type Limits Name
  ,                                       !- Interpolate to Timestep
  24,                                     !- Hour 1
  0,                                      !- Minute 1
  0.3;                                    !- Value Until Time 1

OS:Schedule:Day,
  {c1bf9bc8-cea5-4e00-9437-8a6cc70139e7}, !- Handle
  Medium Office Electric Equipment Summer Design Day Schedule, !- Name
  ,                                       !- Schedule Type Limits Name
  ,                                       !- Interpolate to Timestep
  6,                                      !- Hour 1
  0,                                      !- Minute 1
  1,                                      !- Value Until Time 1
  24,                                     !- Hour 2
  0,                                      !- Minute 2
  0;                                      !- Value Until Time 2

OS:Schedule:Day,
  {1b0b48d3-67ca-4442-8613-b5e62039c848}, !- Handle
  Medium Office Electric Equipment Summer Design Day Schedule 1, !- Name
  {f09b81ea-fff7-4d81-8ec2-611fc676e8e8}, !- Schedule Type Limits Name
  ,                                       !- Interpolate to Timestep
  6,                                      !- Hour 1
  0,                                      !- Minute 1
  1,                                      !- Value Until Time 1
  24,                                     !- Hour 2
  0,                                      !- Minute 2
  0;                                      !- Value Until Time 2

OS:Schedule:Day,
  {b6fecf7f-4109-4f37-a026-b52a1304510f}, !- Handle
  Medium Office Electric Equipment Winter Design Day Schedule, !- Name
  ,                                       !- Schedule Type Limits Name
  ,                                       !- Interpolate to Timestep
  24,                                     !- Hour 1
  0,                                      !- Minute 1
  0;                                      !- Value Until Time 1

OS:Schedule:Day,
  {65f20c17-7203-49fd-be6c-2ef091d4b19e}, !- Handle
  Medium Office Electric Equipment Winter Design Day Schedule 1, !- Name
  {f09b81ea-fff7-4d81-8ec2-611fc676e8e8}, !- Schedule Type Limits Name
  ,                                       !- Interpolate to Timestep
  24,                                     !- Hour 1
  0,                                      !- Minute 1
  0;                                      !- Value Until Time 1

OS:Schedule:Rule,
  {de2ddd83-f8b1-44dd-a433-3d3952280629}, !- Handle
  Medium Office Electric Equipment Schedule Weekdays Rule, !- Name
  {1a773383-9446-48b0-b81f-14e61daea5f2}, !- Schedule Ruleset Name
  1,                                      !- Rule Order
  {2a7bce36-eb6d-4c69-8f5a-ba96bcb2b041}, !- Day Schedule Name
  ,                                       !- Apply Sunday
  Yes,                                    !- Apply Monday
  Yes,                                    !- Apply Tuesday
  Yes,                                    !- Apply Wednesday
  Yes,                                    !- Apply Thursday
  Yes;                                    !- Apply Friday

OS:Schedule:Day,
  {2a7bce36-eb6d-4c69-8f5a-ba96bcb2b041}, !- Handle
  Medium Office Electric Equipment Weekdays Schedule, !- Name
  {f09b81ea-fff7-4d81-8ec2-611fc676e8e8}, !- Schedule Type Limits Name
  ,                                       !- Interpolate to Timestep
  8,                                      !- Hour 1
  0,                                      !- Minute 1
  0.4,                                    !- Value Until Time 1
  12,                                     !- Hour 2
  0,                                      !- Minute 2
  0.9,                                    !- Value Until Time 2
  13,                                     !- Hour 3
  0,                                      !- Minute 3
  0.8,                                    !- Value Until Time 3
  17,                                     !- Hour 4
  0,                                      !- Minute 4
  0.9,                                    !- Value Until Time 4
  18,                                     !- Hour 5
  0,                                      !- Minute 5
  0.8,                                    !- Value Until Time 5
  20,                                     !- Hour 6
  0,                                      !- Minute 6
  0.6,                                    !- Value Until Time 6
  22,                                     !- Hour 7
  0,                                      !- Minute 7
  0.5,                                    !- Value Until Time 7
  24,                                     !- Hour 8
  0,                                      !- Minute 8
  0.4;                                    !- Value Until Time 8

OS:Schedule:Rule,
  {2be969b7-eb04-4ea9-b228-3a23963e6674}, !- Handle
  Medium Office Electric Equipment Schedule Saturday Rule, !- Name
  {1a773383-9446-48b0-b81f-14e61daea5f2}, !- Schedule Ruleset Name
  0,                                      !- Rule Order
  {d057555b-617a-4047-b202-47e2d072a32e}, !- Day Schedule Name
  ,                                       !- Apply Sunday
  ,                                       !- Apply Monday
  ,                                       !- Apply Tuesday
  ,                                       !- Apply Wednesday