
OS:Version,
  {765b5ff7-93f7-4945-a51b-60061c6139a5}, !- Handle
  1.7.4;                                  !- Version Identifier

OS:SimulationControl,
  {73031c13-54c9-46cf-863e-725182e1c46e}, !- Handle
  Yes,                                    !- Do Zone Sizing Calculation
  Yes,                                    !- Do System Sizing Calculation
  ,                                       !- Do Plant Sizing Calculation
  No,                                     !- Run Simulation for Sizing Periods
  Yes;                                    !- Run Simulation for Weather File Run Periods

OS:Timestep,
  {0c701810-6628-4bc8-af15-e41cccfc803c}, !- Handle
  6;                                      !- Number of Timesteps per Hour

OS:RunPeriod,
  {b78ed9bf-48ee-4421-82cb-8420fd3afabc}, !- Handle
  Run Period 1,                           !- Name
  1,                                      !- Begin Month
  1,                                      !- Begin Day of Month
  12,                                     !- End Month
  31,                                     !- End Day of Month
  No,                                     !- Use Weather File Holidays and Special Days
  No,                                     !- Use Weather File Daylight Saving Period
  No,                                     !- Apply Weekend Holiday Rule
  Yes,                                    !- Use Weather File Rain Indicators
  Yes,                                    !- Use Weather File Snow Indicators
  1;                                      !- Number of Times Runperiod to be Repeated

OS:SurfaceConvectionAlgorithm:Inside,
  {bcc2b05c-22ef-4c67-bf59-735589571a63}, !- Handle
  TARP;                                   !- Algorithm

OS:SurfaceConvectionAlgorithm:Outside,
  {04876be8-d9c8-444b-8e5a-a491c74bc02f}, !- Handle
  DOE-2;                                  !- Algorithm

OS:HeatBalanceAlgorithm,
  {e930385b-afa2-4771-b5e5-e68d63dd4d15}, !- Handle
  ConductionTransferFunction,             !- Algorithm
  200;                                    !- Surface Temperature Upper Limit {F}

OS:ZoneAirHeatBalanceAlgorithm,
  {44400456-5a5e-467e-be13-78ca77da4455}, !- Handle
  AnalyticalSolution;                     !- Algorithm

OS:ConvergenceLimits,
  {a1ca6301-d328-4ce0-a288-d343574fb769}; !- Handle

OS:ShadowCalculation,
  {01bd61f6-1676-4d59-bf30-67b057a0c38a}, !- Handle
  7,                                      !- Calculation Frequency
  15000;                                  !- Maximum Figures in Shadow Overlap Calculations

OS:Site,
  {3a03619a-a776-44cc-a9ff-36408b67158b}, !- Handle
  Site 1,                                 !- Name
  41.77,                                  !- Latitude {deg}
  -87.75,                                 !- Longitude {deg}
  -6,                                     !- Time Zone {hr}
  190,                                    !- Elevation {m}
  ;                                       !- Terrain

OS:Site:GroundTemperature:BuildingSurface,
  {00a0ab16-b560-4186-aaa5-860ae4383470}, !- Handle
  19.527,                                 !- January Ground Temperature {C}
  19.502,                                 !- February Ground Temperature {C}
  19.536,                                 !- March Ground Temperature {C}
  19.598,                                 !- April Ground Temperature {C}
  20.002,                                 !- May Ground Temperature {C}
  21.64,                                  !- June Ground Temperature {C}
  22.225,                                 !- July Ground Temperature {C}
  22.375,                                 !- August Ground Temperature {C}
  21.449,                                 !- September Ground Temperature {C}
  20.121,                                 !- October Ground Temperature {C}
  19.802,                                 !- November Ground Temperature {C}
  19.633;                                 !- December Ground Temperature {C}

OS:Site:WaterMainsTemperature,
  {093f2880-dd7c-4959-8a25-5122d331c753}, !- Handle
  Correlation,                            !- Calculation Method
  ,                                       !- Temperature Schedule Name
  9.69,                                   !- Annual Average Outdoor Air Temperature {C}
  28.1;                                   !- Maximum Difference In Monthly Average Outdoor Air Temperatures {deltaC}

OS:SizingPeriod:DesignDay,
  {b1ba06c6-f911-4637-9d4f-dd5a83fe6a59}, !- Handle
  Sizing Period Design Day 1,             !- Name
  -20.6,                                  !- Maximum Dry-Bulb Temperature {C}
  0,                                      !- Daily Dry-Bulb Temperature Range {deltaC}
  -20.6,                                  !- Humidity Indicating Conditions at Maximum Dry-Bulb {BasedOnField A3}
  99063,                                  !- Barometric Pressure {Pa}
  4.9,                                    !- Wind Speed {m/s}
  270,                                    !- Wind Direction {deg}
  0,                                      !- Sky Clearness
  0,                                      !- Rain Indicator
  0,                                      !- Snow Indicator
  21,                                     !- Day of Month
  1,                                      !- Month
  WinterDesignDay,                        !- Day Type
  0,                                      !- Daylight Saving Time Indicator
  WetBulb,                                !- Humidity Indicating Type
  ,                                       !- Humidity Indicating Day Schedule Name
  DefaultMultipliers,                     !- Dry-Bulb Temperature Range Modifier Type
  ,                                       !- Dry-Bulb Temperature Range Modifier Schedule Name
  AshraeClearSky;                         !- Solar Model Indicator

OS:SizingPeriod:DesignDay,
  {dd2e2272-7327-41a4-ace2-5144b800d081}, !- Handle
  Sizing Period Design Day 2,             !- Name
  33.2,                                   !- Maximum Dry-Bulb Temperature {C}
  10.7,                                   !- Daily Dry-Bulb Temperature Range {deltaC}
  23.8,                                   !- Humidity Indicating Conditions at Maximum Dry-Bulb {BasedOnField A3}
  99063,                                  !- Barometric Pressure {Pa}
  5.3,                                    !- Wind Speed {m/s}
  230,                                    !- Wind Direction {deg}
  1,                                      !- Sky Clearness
  0,                                      !- Rain Indicator
  0,                                      !- Snow Indicator
  21,                                     !- Day of Month
  7,                                      !- Month
  SummerDesignDay,                        !- Day Type
  0,                                      !- Daylight Saving Time Indicator
  WetBulb,                                !- Humidity Indicating Type
  ,                                       !- Humidity Indicating Day Schedule Name
  DefaultMultipliers,                     !- Dry-Bulb Temperature Range Modifier Type
  ,                                       !- Dry-Bulb Temperature Range Modifier Schedule Name
  AshraeClearSky;                         !- Solar Model Indicator

OS:ScheduleTypeLimits,
  {9d4c3d40-81c8-4d97-b360-5b622be03877}, !- Handle
  Temperature,                            !- Name
  -60,                                    !- Lower Limit Value {BasedOnField A4}
  200,                                    !- Upper Limit Value {BasedOnField A4}
  CONTINUOUS,                             !- Numeric Type
  Temperature;                            !- Unit Type

OS:DefaultScheduleSet,
  {c2e7789c-927c-44e6-9c56-cc5f88fca0a5}, !- Handle
  Default Schedules,                      !- Name
  ,                                       !- Hours of Operation Schedule Name
  {3dfd8bed-2cbb-456b-a074-619ff5f12bda}, !- Number of People Schedule Name
  {ef660da9-3929-4a08-b7aa-22909471e911}, !- People Activity Level Schedule Name
  {3c3da3a3-67e9-4411-a976-b3f7fe5d675c}, !- Lighting Schedule Name
  {9aa1761d-2fbb-4ac8-839d-b8bf6ecfbe12}, !- Electric Equipment Schedule Name
  {698c6c8f-4978-4a8b-8f1b-ae3ce246370c}, !- Gas Equipment Schedule Name
  {5f4a3630-026e-4b56-a5d6-f12e3402fdf2}, !- Hot Water Equipment Schedule Name
  {0ee4af00-a711-4c1f-bb31-b49132604607}, !- Infiltration Schedule Name
  ,                                       !- Steam Equipment Schedule Name
  ;                                       !- Other Equipment Schedule Name

OS:Schedule:Ruleset,
  {3dfd8bed-2cbb-456b-a074-619ff5f12bda}, !- Handle
  Medium Office Number of People Schedule, !- Name
  {a1ce783e-6d79-4072-b6c8-bf4dcab914c7}, !- Schedule Type Limits Name
  {89bcf106-e511-433c-a3ff-05ae507bb97e}, !- Default Day Schedule Name
  {ea3657ac-d4c5-4fa5-a14e-a695ccf71a0d}; !- Summer Design Day Schedule Name

OS:Schedule:Day,
  {89bcf106-e511-433c-a3ff-05ae507bb97e}, !- Handle
  Medium Office Number of People All Other Days Schedule, !- Name
  {a1ce783e-6d79-4072-b6c8-bf4dcab914c7}, !- Schedule Type Limits Name
  ,                                       !- Interpolate to Timestep
  24,                                     !- Hour 1
  0,                                      !- Minute 1
  0;                                      !- Value Until Time 1

OS:Schedule:Day,
  {0443c963-ba20-4699-a46c-c9c813f2ae26}, !- Handle
  Medium Office Number of People Summer Design Day Schedule, !- Name
  ,                                       !- Schedule Type Limits Name
  ,                                       !- Interpolate to Timestep
  6,                                      !- Hour 1
  0,                                      !- Minute 1
  0,                                      !- Value Until Time 1
  22,                                     !- Hour 2
  0,                                      !- Minute 2
  1,                                      !- Value Until Time 2
  24,                                     !- Hour 3
  0,                                      !- Minute 3
  0.05;                                   !- Value Until Time 3

OS:Schedule:Day,
  {ea3657ac-d4c5-4fa5-a14e-a695ccf71a0d}, !- Handle
  Medium Office Number of People Summer Design Day Schedule 1, !- Name
  {a1ce783e-6d79-4072-b6c8-bf4dcab914c7}, !- Schedule Type Limits Name
  ,                                       !- Interpolate to Timestep
  6,                                      !- Hour 1
  0,                                      !- Minute 1
  0,                                      !- Value Until Time 1
  22,                                     !- Hour 2
  0,                                      !- Minute 2
  1,                                      !- Value Until Time 2
  24,                                     !- Hour 3
  0,                                      !- Minute 3
  0.05;                                   !- Value Until Time 3

OS:Schedule:Rule,
  {e7a56385-46d5-4be0-bc49-c68353379195}, !- Handle
  Medium Office Number of People Schedule Weekdays Rule, !- Name
  {3dfd8bed-2cbb-456b-a074-619ff5f12bda}, !- Schedule Ruleset Name
  1,                                      !- Rule Order
  {7831c684-eb0c-42e5-9d4f-837d1a173008}, !- Day Schedule Name
  ,                                       !- Apply Sunday
  Yes,                                    !- Apply Monday
  Yes,                                    !- Apply Tuesday
  Yes,                                    !- Apply Wednesday
  Yes,                                    !- Apply Thursday
  Yes;                                    !- Apply Friday

OS:Schedule:Day,
  {7831c684-eb0c-42e5-9d4f-837d1a173008}, !- Handle
  Medium Office Number of People Weekdays Schedule, !- Name
  {a1ce783e-6d79-4072-b6c8-bf4dcab914c7}, !- Schedule Type Limits Name
  ,                                       !- Interpolate to Timestep
  6,                                      !- Hour 1
  0,                                      !- Minute 1
  0,                                      !- Value Until Time 1
  7,                                      !- Hour 2
  0,                                      !- Minute 2
  0.1,                                    !- Value Until Time 2
  8,                                      !- Hour 3
  0,                                      !- Minute 3
  0.2,                                    !- Value Until Time 3
  12,                                     !- Hour 4
  0,                                      !- Minute 4
  0.95,                                   !- Value Until Time 4
  13,                                     !- Hour 5
  0,                                      !- Minute 5
  0.5,                                    !- Value Until Time 5
  17,                                     !- Hour 6
  0,                                      !- Minute 6
  0.95,                                   !- Value Until Time 6
  18,                                     !- Hour 7
  0,                                      !- Minute 7
  0.7,                                    !- Value Until Time 7
  20,                                     !- Hour 8
  0,                                      !- Minute 8
  0.4,                                    !- Value Until Time 8
  22,                                     !- Hour 9
  0,                                      !- Minute 9
  0.1,                                    !- Value Until Time 9
  24,                                     !- Hour 10
  0,                                      !- Minute 10
  0.05;                                   !- Value Until Time 10

OS:Schedule:Rule,
  {2da4e22e-2136-4127-b41b-3978752e27cb}, !- Handle
  Medium Office Number of People Schedule Saturday Rule, !- Name
  {3dfd8bed-2cbb-456b-a074-619ff5f12bda}, !- Schedule Ruleset Name
  0,                                      !- Rule Order
  {4450046d-138d-4e3d-9693-1e34ae2647bc}, !- Day Schedule Name
  ,                                       !- Apply Sunday
  ,                                       !- Apply Monday
  ,                                       !- Apply Tuesday
  ,                                       !- Apply Wednesday
  ,                                       !- Apply Thursday
  ,                                       !- Apply Friday
  Yes;                                    !- Apply Saturday

OS:Schedule:Day,
  {4450046d-138d-4e3d-9693-1e34ae2647bc}, !- Handle
  Medium Office Number of People Saturday Schedule, !- Name
  {a1ce783e-6d79-4072-b6c8-bf4dcab914c7}, !- Schedule Type Limits Name
  ,                                       !- Interpolate to Timestep
  6,                                      !- Hour 1
  0,                                      !- Minute 1
  0,                                      !- Value Until Time 1
  8,                                      !- Hour 2
  0,                                      !- Minute 2
  0.1,                                    !- Value Until Time 2
  14,                                     !- Hour 3
  0,                                      !- Minute 3
  0.5,                                    !- Value Until Time 3
  17,                                     !- Hour 4
  0,                                      !- Minute 4
  0.1,                                    !- Value Until Time 4
  24,                                     !- Hour 5
  0,                                      !- Minute 5
  0;                                      !- Value Until Time 5

OS:ScheduleTypeLimits,
  {a1ce783e-6d79-4072-b6c8-bf4dcab914c7}, !- Handle
  Fractional,                             !- Name
  0,                                      !- Lower Limit Value {BasedOnField A4}
  1,                                      !- Upper Limit Value {BasedOnField A4}
  Continuous;                             !- Numeric Type

OS:Schedule:Ruleset,
  {ef660da9-3929-4a08-b7aa-22909471e911}, !- Handle
  Medium Office People Activity Level Schedule, !- Name
  {26f53cb4-583b-48f9-857d-dd07dd415f24}, !- Schedule Type Limits Name
  {e772758a-0f5e-406b-869f-f260a42e74ea}; !- Default Day Schedule Name

OS:Schedule:Day,
  {e772758a-0f5e-406b-869f-f260a42e74ea}, !- Handle
  Medium Office People Activity Level All Days Schedule, !- Name
  {26f53cb4-583b-48f9-857d-dd07dd415f24}, !- Schedule Type Limits Name
  ,                                       !- Interpolate to Timestep
  24,                                     !- Hour 1
  0,                                      !- Minute 1
  120;                                    !- Value Until Time 1

OS:ScheduleTypeLimits,
  {26f53cb4-583b-48f9-857d-dd07dd415f24}, !- Handle
  ActivityLevel,                          !- Name
  0,                                      !- Lower Limit Value {BasedOnField A4}
  ,                                       !- Upper Limit Value {BasedOnField A4}
  Continuous,                             !- Numeric Type
  ActivityLevel;                          !- Unit Type

OS:Schedule:Ruleset,
  {3c3da3a3-67e9-4411-a976-b3f7fe5d675c}, !- Handle
  Medium Office Lighting Schedule,        !- Name
  {a1ce783e-6d79-4072-b6c8-bf4dcab914c7}, !- Schedule Type Limits Name
  {b2215662-1287-41dd-949c-866824a31fec}, !- Default Day Schedule Name
  {fd66ccab-39fa-41d2-a076-2240b1147ecd}, !- Summer Design Day Schedule Name
  {415f048e-b603-41a9-9368-4f2c0fa109c1}; !- Winter Design Day Schedule Name

OS:Schedule:Day,
  {b2215662-1287-41dd-949c-866824a31fec}, !- Handle
  Medium Office Lighting All Other Days Schedule, !- Name
  {a1ce783e-6d79-4072-b6c8-bf4dcab914c7}, !- Schedule Type Limits Name
  ,                                       !- Interpolate to Timestep
  24,                                     !- Hour 1
  0,                                      !- Minute 1
  0.05;                                   !- Value Until Time 1

OS:Schedule:Day,
  {935991bc-db17-4815-ba86-ae8caf8a11fa}, !- Handle
  Medium Office Lighting Summer Design Day Schedule, !- Name
  ,                                       !- Schedule Type Limits Name
  ,                                       !- Interpolate to Timestep
  6,                                      !- Hour 1
  0,                                      !- Minute 1
  1,                                      !- Value Until Time 1
  24,                                     !- Hour 2
  0,                                      !- Minute 2
  0;                                      !- Value Until Time 2

OS:Schedule:Day,
  {fd66ccab-39fa-41d2-a076-2240b1147ecd}, !- Handle
  Medium Office Lighting Summer Design Day Schedule 1, !- Name
  {a1ce783e-6d79-4072-b6c8-bf4dcab914c7}, !- Schedule Type Limits Name
  ,                                       !- Interpolate to Timestep
  6,                                      !- Hour 1
  0,                                      !- Minute 1
  1,                                      !- Value Until Time 1
  24,                                     !- Hour 2
  0,                                      !- Minute 2
  0;                                      !- Value Until Time 2

OS:Schedule:Day,
  {59bc3245-3e91-42a0-b541-a998da3f8e6b}, !- Handle
  Medium Office Lighting Winter Design Day Schedule, !- Name
  ,                                       !- Schedule Type Limits Name
  ,                                       !- Interpolate to Timestep
  24,                                     !- Hour 1
  0,                                      !- Minute 1
  0;                                      !- Value Until Time 1

OS:Schedule:Day,
  {415f048e-b603-41a9-9368-4f2c0fa109c1}, !- Handle
  Medium Office Lighting Winter Design Day Schedule 1, !- Name
  {a1ce783e-6d79-4072-b6c8-bf4dcab914c7}, !- Schedule Type Limits Name
  ,                                       !- Interpolate to Timestep
  24,                                     !- Hour 1
  0,                                      !- Minute 1
  0;                                      !- Value Until Time 1

OS:Schedule:Rule,
  {898584e3-38b9-4510-986b-53d9b484b430}, !- Handle
  Medium Office Lighting Schedule Weekdays Rule, !- Name
  {3c3da3a3-67e9-4411-a976-b3f7fe5d675c}, !- Schedule Ruleset Name
  1,                                      !- Rule Order
  {17595fd3-8683-4ac2-8e9e-7aa2d2d60101}, !- Day Schedule Name
  ,                                       !- Apply Sunday
  Yes,                                    !- Apply Monday
  Yes,                                    !- Apply Tuesday
  Yes,                                    !- Apply Wednesday
  Yes,                                    !- Apply Thursday
  Yes;                                    !- Apply Friday

OS:Schedule:Day,
  {17595fd3-8683-4ac2-8e9e-7aa2d2d60101}, !- Handle
  Medium Office Lighting Weekdays Schedule, !- Name
  {a1ce783e-6d79-4072-b6c8-bf4dcab914c7}, !- Schedule Type Limits Name
  ,                                       !- Interpolate to Timestep
  5,                                      !- Hour 1
  0,                                      !- Minute 1
  0.05,                                   !- Value Until Time 1
  7,                                      !- Hour 2
  0,                                      !- Minute 2
  0.1,                                    !- Value Until Time 2
  8,                                      !- Hour 3
  0,                                      !- Minute 3
  0.3,                                    !- Value Until Time 3
  17,                                     !- Hour 4
  0,                                      !- Minute 4
  0.9,                                    !- Value Until Time 4
  18,                                     !- Hour 5
  0,                                      !- Minute 5
  0.7,                                    !- Value Until Time 5
  20,                                     !- Hour 6
  0,                                      !- Minute 6
  0.5,                                    !- Value Until Time 6
  22,                                     !- Hour 7
  0,                                      !- Minute 7
  0.3,                                    !- Value Until Time 7
  23,                                     !- Hour 8
  0,                                      !- Minute 8
  0.1,                                    !- Value Until Time 8
  24,                                     !- Hour 9
  0,                                      !- Minute 9
  0.05;                                   !- Value Until Time 9

OS:Schedule:Rule,
  {4813c1fb-9a52-48a6-984e-2053797ce2b0}, !- Handle
  Medium Office Lighting Schedule Saturday Rule, !- Name
  {3c3da3a3-67e9-4411-a976-b3f7fe5d675c}, !- Schedule Ruleset Name
  0,                                      !- Rule Order
  {f8345c21-9b43-4c16-b3e7-97f8967ce90b}, !- Day Schedule Name
  ,                                       !- Apply Sunday
  ,                                       !- Apply Monday
  ,                                       !- Apply Tuesday
  ,                                       !- Apply Wednesday
  ,                                       !- Apply Thursday
  ,                                       !- Apply Friday
  Yes;                                    !- Apply Saturday

OS:Schedule:Day,
  {f8345c21-9b43-4c16-b3e7-97f8967ce90b}, !- Handle
  Medium Office Lighting Saturday Schedule, !- Name
  {a1ce783e-6d79-4072-b6c8-bf4dcab914c7}, !- Schedule Type Limits Name
  ,                                       !- Interpolate to Timestep
  6,                                      !- Hour 1
  0,                                      !- Minute 1
  0.05,                                   !- Value Until Time 1
  8,                                      !- Hour 2
  0,                                      !- Minute 2
  0.1,                                    !- Value Until Time 2
  14,                                     !- Hour 3
  0,                                      !- Minute 3
  0.5,                                    !- Value Until Time 3
  17,                                     !- Hour 4
  0,                                      !- Minute 4
  0.15,                                   !- Value Until Time 4
  24,                                     !- Hour 5
  0,                                      !- Minute 5
  0.05;                                   !- Value Until Time 5

OS:Schedule:Ruleset,
  {9aa1761d-2fbb-4ac8-839d-b8bf6ecfbe12}, !- Handle
  Medium Office Electric Equipment Schedule, !- Name
  {a1ce783e-6d79-4072-b6c8-bf4dcab914c7}, !- Schedule Type Limits Name
  {237a8d89-9410-461d-9cdc-2758df9bb21e}, !- Default Day Schedule Name
  {d8817eab-5e38-4252-b63d-025605abc28b}, !- Summer Design Day Schedule Name
  {576dba6b-0297-41aa-a7ab-1c99034ebd34}; !- Winter Design Day Schedule Name

OS:Schedule:Day,
  {237a8d89-9410-461d-9cdc-2758df9bb21e}, !- Handle
  Medium Office Electric Equipment All Other Days Schedule, !- Name
  {a1ce783e-6d79-4072-b6c8-bf4dcab914c7}, !- Schedule Type Limits Name
  ,                                       !- Interpolate to Timestep
  24,                                     !- Hour 1
  0,                                      !- Minute 1
  0.3;                                    !- Value Until Time 1

OS:Schedule:Day,
  {08293706-270c-435a-9c73-d56a1de05664}, !- Handle
  Medium Office Electric Equipment Summer Design Day Schedule, !- Name
  ,                                       !- Schedule Type Limits Name
  ,                                       !- Interpolate to Timestep
  6,                                      !- Hour 1
  0,                                      !- Minute 1
  1,                                      !- Value Until Time 1
  24,                                     !- Hour 2
  0,                                      !- Minute 2
  0;                                      !- Value Until Time 2

OS:Schedule:Day,
  {d8817eab-5e38-4252-b63d-025605abc28b}, !- Handle
  Medium Office Electric Equipment Summer Design Day Schedule 1, !- Name
  {a1ce783e-6d79-4072-b6c8-bf4dcab914c7}, !- Schedule Type Limits Name
  ,                                       !- Interpolate to Timestep
  6,                                      !- Hour 1
  0,                                      !- Minute 1
  1,                                      !- Value Until Time 1
  24,                                     !- Hour 2
  0,                                      !- Minute 2
  0;                                      !- Value Until Time 2

OS:Schedule:Day,
  {817d444c-37ef-41f8-ba52-5e53cf322a3f}, !- Handle
  Medium Office Electric Equipment Winter Design Day Schedule, !- Name
  ,                                       !- Schedule Type Limits Name
  ,                                       !- Interpolate to Timestep
  24,                                     !- Hour 1
  0,                                      !- Minute 1
  0;                                      !- Value Until Time 1

OS:Schedule:Day,
  {576dba6b-0297-41aa-a7ab-1c99034ebd34}, !- Handle
  Medium Office Electric Equipment Winter Design Day Schedule 1, !- Name
  {a1ce783e-6d79-4072-b6c8-bf4dcab914c7}, !- Schedule Type Limits Name
  ,                                       !- Interpolate to Timestep
  24,                                     !- Hour 1
  0,                                      !- Minute 1
  0;                                      !- Value Until Time 1

OS:Schedule:Rule,
  {712de4b0-9a13-4d8f-b1e1-effc136844a0}, !- Handle
  Medium Office Electric Equipment Schedule Weekdays Rule, !- Name
  {9aa1761d-2fbb-4ac8-839d-b8bf6ecfbe12}, !- Schedule Ruleset Name
  1,                                      !- Rule Order
  {48383b5b-9c09-444b-8b1a-9696475f29ea}, !- Day Schedule Name
  ,                                       !- Apply Sunday
  Yes,                                    !- Apply Monday
  Yes,                                    !- Apply Tuesday
  Yes,                                    !- Apply Wednesday
  Yes,                                    !- Apply Thursday
  Yes;                                    !- Apply Friday

OS:Schedule:Day,
  {48383b5b-9c09-444b-8b1a-9696475f29ea}, !- Handle
  Medium Office Electric Equipment Weekdays Schedule, !- Name
  {a1ce783e-6d79-4072-b6c8-bf4dcab914c7}, !- Schedule Type Limits Name
  ,                                       !- Interpolate to Timestep
  8,                                      !- Hour 1
  0,                                      !- Minute 1
  0.4,                                    !- Value Until Time 1
  12,                                     !- Hour 2
  0,                                      !- Minute 2
  0.9,                                    !- Value Until Time 2
  13,                                     !- Hour 3
  0,                                      !- Minute 3
  0.8,                                    !- Value Until Time 3
  17,                                     !- Hour 4
  0,                                      !- Minute 4
  0.9,                                    !- Value Until Time 4
  18,                                     !- Hour 5
  0,                                      !- Minute 5
  0.8,                                    !- Value Until Time 5
  20,                                     !- Hour 6
  0,                                      !- Minute 6
  0.6,                                    !- Value Until Time 6
  22,                                     !- Hour 7
  0,                                      !- Minute 7
  0.5,                                    !- Value Until Time 7
  24,                                     !- Hour 8
  0,                                      !- Minute 8
  0.4;                                    !- Value Until Time 8

OS:Schedule:Rule,
  {137246eb-49c1-4a2a-8cbd-b62f26fc5262}, !- Handle
  Medium Office Electric Equipment Schedule Saturday Rule, !- Name
  {9aa1761d-2fbb-4ac8-839d-b8bf6ecfbe12}, !- Schedule Ruleset Name
  0,                                      !- Rule Order
  {79511648-46fd-46c4-8491-c055328fcdd8}, !- Day Schedule Name
  ,                                       !- Apply Sunday
  ,                                       !- Apply Monday
  ,                                       !- Apply Tuesday
  ,                                       !- Apply Wednesday