
OS:Version,
  {63f6f142-88af-49ab-88c1-f4fdb864ece1}, !- Handle
  1.11.1;                                 !- Version Identifier

OS:SimulationControl,
  {d89bea7c-a1b5-4ea5-af01-bdc88c450b73}, !- Handle
  Yes,                                    !- Do Zone Sizing Calculation
  Yes,                                    !- Do System Sizing Calculation
  ,                                       !- Do Plant Sizing Calculation
  No,                                     !- Run Simulation for Sizing Periods
  Yes;                                    !- Run Simulation for Weather File Run Periods

OS:Timestep,
  {aa593145-d6c7-439c-80f0-03a2a36d2a58}, !- Handle
  6;                                      !- Number of Timesteps per Hour

OS:RunPeriod,
  {3180754d-a978-4019-8245-b744cbced941}, !- Handle
  Run Period 1,                           !- Name
  1,                                      !- Begin Month
  1,                                      !- Begin Day of Month
  12,                                     !- End Month
  31,                                     !- End Day of Month
  No,                                     !- Use Weather File Holidays and Special Days
  No,                                     !- Use Weather File Daylight Saving Period
  No,                                     !- Apply Weekend Holiday Rule
  Yes,                                    !- Use Weather File Rain Indicators
  Yes,                                    !- Use Weather File Snow Indicators
  1;                                      !- Number of Times Runperiod to be Repeated

OS:SurfaceConvectionAlgorithm:Inside,
  {69142257-a501-4cbc-8c4d-fde1c9dbdfcd}, !- Handle
  TARP;                                   !- Algorithm

OS:SurfaceConvectionAlgorithm:Outside,
  {cfe10643-fee9-4ebe-afd4-f7f28aa0dc8f}, !- Handle
  DOE-2;                                  !- Algorithm

OS:HeatBalanceAlgorithm,
  {de737a3d-e019-4393-b1ec-259872d367cb}, !- Handle
  ConductionTransferFunction,             !- Algorithm
  200;                                    !- Surface Temperature Upper Limit {C}

OS:ZoneAirHeatBalanceAlgorithm,
  {a94dae16-0df1-4d74-aca4-13e012d2cd0e}, !- Handle
  ThirdOrderBackwardDifference;           !- Algorithm

OS:ConvergenceLimits,
  {d43db1f1-ea4f-4d10-a6ab-8aae634ebb1e}, !- Handle
  1;                                      !- Minimum System Timestep {minutes}

OS:ShadowCalculation,
  {7eaca0cb-256f-48bf-a83c-d2471fdaffc6}, !- Handle
  20,                                     !- Calculation Frequency
  15000;                                  !- Maximum Figures in Shadow Overlap Calculations

OS:Site,
  {05ab831b-f531-46b9-8e70-40e40f10953d}, !- Handle
  Site 1,                                 !- Name
  41.77,                                  !- Latitude {deg}
  -87.75,                                 !- Longitude {deg}
  -6,                                     !- Time Zone {hr}
  190,                                    !- Elevation {m}
  ;                                       !- Terrain

OS:Site:GroundTemperature:BuildingSurface,
  {beeb80e0-5b44-43f8-a3d7-22220df365ac}, !- Handle
  19.527,                                 !- January Ground Temperature {C}
  19.502,                                 !- February Ground Temperature {C}
  19.536,                                 !- March Ground Temperature {C}
  19.598,                                 !- April Ground Temperature {C}
  20.002,                                 !- May Ground Temperature {C}
  21.64,                                  !- June Ground Temperature {C}
  22.225,                                 !- July Ground Temperature {C}
  22.375,                                 !- August Ground Temperature {C}
  21.449,                                 !- September Ground Temperature {C}
  20.121,                                 !- October Ground Temperature {C}
  19.802,                                 !- November Ground Temperature {C}
  19.633;                                 !- December Ground Temperature {C}

OS:Site:WaterMainsTemperature,
  {6e50e790-1950-43a2-be9f-b2c78eab009e}, !- Handle
  Correlation,                            !- Calculation Method
  ,                                       !- Temperature Schedule Name
  9.69,                                   !- Annual Average Outdoor Air Temperature {C}
  28.1;                                   !- Maximum Difference In Monthly Average Outdoor Air Temperatures {deltaC}

OS:SizingPeriod:DesignDay,
  {e6228bec-f14b-44e5-98c8-601d065d3c6f}, !- Handle
  Sizing Period Design Day 1,             !- Name
  -20.6,                                  !- Maximum Dry-Bulb Temperature {C}
  0,                                      !- Daily Dry-Bulb Temperature Range {deltaC}
  -20.6,                                  !- Humidity Indicating Conditions at Maximum Dry-Bulb
  99063,                                  !- Barometric Pressure {Pa}
  4.9,                                    !- Wind Speed {m/s}
  270,                                    !- Wind Direction {deg}
  0,                                      !- Sky Clearness
  0,                                      !- Rain Indicator
  0,                                      !- Snow Indicator
  21,                                     !- Day of Month
  1,                                      !- Month
  WinterDesignDay,                        !- Day Type
  0,                                      !- Daylight Saving Time Indicator
  WetBulb,                                !- Humidity Indicating Type
  ,                                       !- Humidity Indicating Day Schedule Name
  DefaultMultipliers,                     !- Dry-Bulb Temperature Range Modifier Type
  ,                                       !- Dry-Bulb Temperature Range Modifier Schedule Name
  AshraeClearSky;                         !- Solar Model Indicator

OS:SizingPeriod:DesignDay,
  {8ccf483e-02a2-4a9f-96b5-29374cca303e}, !- Handle
  Sizing Period Design Day 2,             !- Name
  33.2,                                   !- Maximum Dry-Bulb Temperature {C}
  10.7,                                   !- Daily Dry-Bulb Temperature Range {deltaC}
  23.8,                                   !- Humidity Indicating Conditions at Maximum Dry-Bulb
  99063,                                  !- Barometric Pressure {Pa}
  5.3,                                    !- Wind Speed {m/s}
  230,                                    !- Wind Direction {deg}
  1,                                      !- Sky Clearness
  0,                                      !- Rain Indicator
  0,                                      !- Snow Indicator
  21,                                     !- Day of Month
  7,                                      !- Month
  SummerDesignDay,                        !- Day Type
  0,                                      !- Daylight Saving Time Indicator
  WetBulb,                                !- Humidity Indicating Type
  ,                                       !- Humidity Indicating Day Schedule Name
  DefaultMultipliers,                     !- Dry-Bulb Temperature Range Modifier Type
  ,                                       !- Dry-Bulb Temperature Range Modifier Schedule Name
  AshraeClearSky;                         !- Solar Model Indicator

OS:ScheduleTypeLimits,
  {0d3a7d35-b161-4ed9-af5a-5b46329c23e5}, !- Handle
  Temperature,                            !- Name
  -60,                                    !- Lower Limit Value
  200,                                    !- Upper Limit Value
  CONTINUOUS,                             !- Numeric Type
  Temperature;                            !- Unit Type

OS:DefaultScheduleSet,
  {bcf67795-c419-4b4b-8e54-31e5e001764c}, !- Handle
  Default Schedules,                      !- Name
  ,                                       !- Hours of Operation Schedule Name
  {da706328-4f1f-4edb-8355-ac2d30d60779}, !- Number of People Schedule Name
  {6efbd2ee-b1bc-4a44-8375-a5121eadc6bd}, !- People Activity Level Schedule Name
  {465c1f13-9d5e-4211-b481-f29ec4217119}, !- Lighting Schedule Name
  {c50ff319-52b3-448e-99db-8e348bc64d7c}, !- Electric Equipment Schedule Name
  {32cd0473-17e4-4992-be96-efbc2d1efbb8}, !- Gas Equipment Schedule Name
  {a479795c-6f97-4856-b103-24fe2250fe7c}, !- Hot Water Equipment Schedule Name
  {d3c590fa-3595-4c82-b8f7-9a978942e13e}, !- Infiltration Schedule Name
  ,                                       !- Steam Equipment Schedule Name
  ;                                       !- Other Equipment Schedule Name

OS:Schedule:Ruleset,
  {da706328-4f1f-4edb-8355-ac2d30d60779}, !- Handle
  Medium Office Number of People Schedule, !- Name
  {0c1e8a1f-f32b-4d26-8119-86d214b4a132}, !- Schedule Type Limits Name
  {1ab8e0a9-f09f-45a5-8685-3c7e9234c8d4}, !- Default Day Schedule Name
  {63c783e4-144e-43c8-b340-71d8beac4ff0}; !- Summer Design Day Schedule Name

OS:Schedule:Day,
  {1ab8e0a9-f09f-45a5-8685-3c7e9234c8d4}, !- Handle
  Medium Office Number of People All Other Days Schedule, !- Name
  {0c1e8a1f-f32b-4d26-8119-86d214b4a132}, !- Schedule Type Limits Name
  ,                                       !- Interpolate to Timestep
  24,                                     !- Hour 1
  0,                                      !- Minute 1
  0;                                      !- Value Until Time 1

OS:Schedule:Day,
  {2cf0c948-fbf8-4282-9e9e-f7fbe8a884b7}, !- Handle
  Medium Office Number of People Summer Design Day Schedule, !- Name
  ,                                       !- Schedule Type Limits Name
  ,                                       !- Interpolate to Timestep
  6,                                      !- Hour 1
  0,                                      !- Minute 1
  0,                                      !- Value Until Time 1
  22,                                     !- Hour 2
  0,                                      !- Minute 2
  1,                                      !- Value Until Time 2
  24,                                     !- Hour 3
  0,                                      !- Minute 3
  0.05;                                   !- Value Until Time 3

OS:Schedule:Day,
  {63c783e4-144e-43c8-b340-71d8beac4ff0}, !- Handle
  Medium Office Number of People Summer Design Day Schedule 1, !- Name
  {0c1e8a1f-f32b-4d26-8119-86d214b4a132}, !- Schedule Type Limits Name
  ,                                       !- Interpolate to Timestep
  6,                                      !- Hour 1
  0,                                      !- Minute 1
  0,                                      !- Value Until Time 1
  22,                                     !- Hour 2
  0,                                      !- Minute 2
  1,                                      !- Value Until Time 2
  24,                                     !- Hour 3
  0,                                      !- Minute 3
  0.05;                                   !- Value Until Time 3

OS:Schedule:Rule,
  {ae86bcc9-1070-487e-bcde-01ef12f35ff8}, !- Handle
  Medium Office Number of People Schedule Weekdays Rule, !- Name
  {da706328-4f1f-4edb-8355-ac2d30d60779}, !- Schedule Ruleset Name
  1,                                      !- Rule Order
  {826e8371-c2ff-425f-957a-26e8eb4afb88}, !- Day Schedule Name
  ,                                       !- Apply Sunday
  Yes,                                    !- Apply Monday
  Yes,                                    !- Apply Tuesday
  Yes,                                    !- Apply Wednesday
  Yes,                                    !- Apply Thursday
  Yes;                                    !- Apply Friday

OS:Schedule:Day,
  {826e8371-c2ff-425f-957a-26e8eb4afb88}, !- Handle
  Medium Office Number of People Weekdays Schedule, !- Name
  {0c1e8a1f-f32b-4d26-8119-86d214b4a132}, !- Schedule Type Limits Name
  ,                                       !- Interpolate to Timestep
  6,                                      !- Hour 1
  0,                                      !- Minute 1
  0,                                      !- Value Until Time 1
  7,                                      !- Hour 2
  0,                                      !- Minute 2
  0.1,                                    !- Value Until Time 2
  8,                                      !- Hour 3
  0,                                      !- Minute 3
  0.2,                                    !- Value Until Time 3
  12,                                     !- Hour 4
  0,                                      !- Minute 4
  0.95,                                   !- Value Until Time 4
  13,                                     !- Hour 5
  0,                                      !- Minute 5
  0.5,                                    !- Value Until Time 5
  17,                                     !- Hour 6
  0,                                      !- Minute 6
  0.95,                                   !- Value Until Time 6
  18,                                     !- Hour 7
  0,                                      !- Minute 7
  0.7,                                    !- Value Until Time 7
  20,                                     !- Hour 8
  0,                                      !- Minute 8
  0.4,                                    !- Value Until Time 8
  22,                                     !- Hour 9
  0,                                      !- Minute 9
  0.1,                                    !- Value Until Time 9
  24,                                     !- Hour 10
  0,                                      !- Minute 10
  0.05;                                   !- Value Until Time 10

OS:Schedule:Rule,
  {c15030bb-56c9-421d-ad94-d8e921acbda2}, !- Handle
  Medium Office Number of People Schedule Saturday Rule, !- Name
  {da706328-4f1f-4edb-8355-ac2d30d60779}, !- Schedule Ruleset Name
  0,                                      !- Rule Order
  {b20712e9-59d9-42d0-960e-960b2a195ef8}, !- Day Schedule Name
  ,                                       !- Apply Sunday
  ,                                       !- Apply Monday
  ,                                       !- Apply Tuesday
  ,                                       !- Apply Wednesday
  ,                                       !- Apply Thursday
  ,                                       !- Apply Friday
  Yes;                                    !- Apply Saturday

OS:Schedule:Day,
  {b20712e9-59d9-42d0-960e-960b2a195ef8}, !- Handle
  Medium Office Number of People Saturday Schedule, !- Name
  {0c1e8a1f-f32b-4d26-8119-86d214b4a132}, !- Schedule Type Limits Name
  ,                                       !- Interpolate to Timestep
  6,                                      !- Hour 1
  0,                                      !- Minute 1
  0,                                      !- Value Until Time 1
  8,                                      !- Hour 2
  0,                                      !- Minute 2
  0.1,                                    !- Value Until Time 2
  14,                                     !- Hour 3
  0,                                      !- Minute 3
  0.5,                                    !- Value Until Time 3
  17,                                     !- Hour 4
  0,                                      !- Minute 4
  0.1,                                    !- Value Until Time 4
  24,                                     !- Hour 5
  0,                                      !- Minute 5
  0;                                      !- Value Until Time 5

OS:ScheduleTypeLimits,
  {0c1e8a1f-f32b-4d26-8119-86d214b4a132}, !- Handle
  Fractional,                             !- Name
  0,                                      !- Lower Limit Value
  1,                                      !- Upper Limit Value
  Continuous;                             !- Numeric Type

OS:Schedule:Ruleset,
  {6efbd2ee-b1bc-4a44-8375-a5121eadc6bd}, !- Handle
  Medium Office People Activity Level Schedule, !- Name
  {8afbf4f2-36fe-46ad-b5c4-c50eb26a7315}, !- Schedule Type Limits Name
  {14535ebe-493f-431c-91f5-b2dbcc8a377e}; !- Default Day Schedule Name

OS:Schedule:Day,
  {14535ebe-493f-431c-91f5-b2dbcc8a377e}, !- Handle
  Medium Office People Activity Level All Days Schedule, !- Name
  {8afbf4f2-36fe-46ad-b5c4-c50eb26a7315}, !- Schedule Type Limits Name
  ,                                       !- Interpolate to Timestep
  24,                                     !- Hour 1
  0,                                      !- Minute 1
  120;                                    !- Value Until Time 1

OS:ScheduleTypeLimits,
  {8afbf4f2-36fe-46ad-b5c4-c50eb26a7315}, !- Handle
  ActivityLevel,                          !- Name
  0,                                      !- Lower Limit Value
  ,                                       !- Upper Limit Value
  Continuous,                             !- Numeric Type
  ActivityLevel;                          !- Unit Type

OS:Schedule:Ruleset,
  {465c1f13-9d5e-4211-b481-f29ec4217119}, !- Handle
  Medium Office Lighting Schedule,        !- Name
  {0c1e8a1f-f32b-4d26-8119-86d214b4a132}, !- Schedule Type Limits Name
  {1b1044cf-7530-46da-bc54-41fadba8cbc7}, !- Default Day Schedule Name
  {06ad9816-ce99-40e4-9954-d10c626305af}, !- Summer Design Day Schedule Name
  {4c5b9b38-aece-463a-8d96-483cce100de9}; !- Winter Design Day Schedule Name

OS:Schedule:Day,
  {1b1044cf-7530-46da-bc54-41fadba8cbc7}, !- Handle
  Medium Office Lighting All Other Days Schedule, !- Name
  {0c1e8a1f-f32b-4d26-8119-86d214b4a132}, !- Schedule Type Limits Name
  ,                                       !- Interpolate to Timestep
  24,                                     !- Hour 1
  0,                                      !- Minute 1
  0.05;                                   !- Value Until Time 1

OS:Schedule:Day,
  {67be44cc-a1b0-4121-b175-f2531c737db8}, !- Handle
  Medium Office Lighting Summer Design Day Schedule, !- Name
  ,                                       !- Schedule Type Limits Name
  ,                                       !- Interpolate to Timestep
  6,                                      !- Hour 1
  0,                                      !- Minute 1
  1,                                      !- Value Until Time 1
  24,                                     !- Hour 2
  0,                                      !- Minute 2
  0;                                      !- Value Until Time 2

OS:Schedule:Day,
  {06ad9816-ce99-40e4-9954-d10c626305af}, !- Handle
  Medium Office Lighting Summer Design Day Schedule 1, !- Name
  {0c1e8a1f-f32b-4d26-8119-86d214b4a132}, !- Schedule Type Limits Name
  ,                                       !- Interpolate to Timestep
  6,                                      !- Hour 1
  0,                                      !- Minute 1
  1,                                      !- Value Until Time 1
  24,                                     !- Hour 2
  0,                                      !- Minute 2
  0;                                      !- Value Until Time 2

OS:Schedule:Day,
  {743e623a-5297-4cf9-8c54-2609f09e1efb}, !- Handle
  Medium Office Lighting Winter Design Day Schedule, !- Name
  ,                                       !- Schedule Type Limits Name
  ,                                       !- Interpolate to Timestep
  24,                                     !- Hour 1
  0,                                      !- Minute 1
  0;                                      !- Value Until Time 1

OS:Schedule:Day,
  {4c5b9b38-aece-463a-8d96-483cce100de9}, !- Handle
  Medium Office Lighting Winter Design Day Schedule 1, !- Name
  {0c1e8a1f-f32b-4d26-8119-86d214b4a132}, !- Schedule Type Limits Name
  ,                                       !- Interpolate to Timestep
  24,                                     !- Hour 1
  0,                                      !- Minute 1
  0;                                      !- Value Until Time 1

OS:Schedule:Rule,
  {b55606b6-6182-42f3-a160-e953a9e32520}, !- Handle
  Medium Office Lighting Schedule Weekdays Rule, !- Name
  {465c1f13-9d5e-4211-b481-f29ec4217119}, !- Schedule Ruleset Name
  1,                                      !- Rule Order
  {ba917d78-7a84-495a-bcdf-83db1a9922ca}, !- Day Schedule Name
  ,                                       !- Apply Sunday
  Yes,                                    !- Apply Monday
  Yes,                                    !- Apply Tuesday
  Yes,                                    !- Apply Wednesday
  Yes,                                    !- Apply Thursday
  Yes;                                    !- Apply Friday

OS:Schedule:Day,
  {ba917d78-7a84-495a-bcdf-83db1a9922ca}, !- Handle
  Medium Office Lighting Weekdays Schedule, !- Name
  {0c1e8a1f-f32b-4d26-8119-86d214b4a132}, !- Schedule Type Limits Name
  ,                                       !- Interpolate to Timestep
  5,                                      !- Hour 1
  0,                                      !- Minute 1
  0.05,                                   !- Value Until Time 1
  7,                                      !- Hour 2
  0,                                      !- Minute 2
  0.1,                                    !- Value Until Time 2
  8,                                      !- Hour 3
  0,                                      !- Minute 3
  0.3,                                    !- Value Until Time 3
  17,                                     !- Hour 4
  0,                                      !- Minute 4
  0.9,                                    !- Value Until Time 4
  18,                                     !- Hour 5
  0,                                      !- Minute 5
  0.7,                                    !- Value Until Time 5
  20,                                     !- Hour 6
  0,                                      !- Minute 6
  0.5,                                    !- Value Until Time 6
  22,                                     !- Hour 7
  0,                                      !- Minute 7
  0.3,                                    !- Value Until Time 7
  23,                                     !- Hour 8
  0,                                      !- Minute 8
  0.1,                                    !- Value Until Time 8
  24,                                     !- Hour 9
  0,                                      !- Minute 9
  0.05;                                   !- Value Until Time 9

OS:Schedule:Rule,
  {9206558d-dbe9-4e30-8059-d480dfc07f43}, !- Handle
  Medium Office Lighting Schedule Saturday Rule, !- Name
  {465c1f13-9d5e-4211-b481-f29ec4217119}, !- Schedule Ruleset Name
  0,                                      !- Rule Order
  {416453c8-2aaa-46b8-bcd9-f4eee18f109d}, !- Day Schedule Name
  ,                                       !- Apply Sunday
  ,                                       !- Apply Monday
  ,                                       !- Apply Tuesday
  ,                                       !- Apply Wednesday
  ,                                       !- Apply Thursday
  ,                                       !- Apply Friday
  Yes;                                    !- Apply Saturday

OS:Schedule:Day,
  {416453c8-2aaa-46b8-bcd9-f4eee18f109d}, !- Handle
  Medium Office Lighting Saturday Schedule, !- Name
  {0c1e8a1f-f32b-4d26-8119-86d214b4a132}, !- Schedule Type Limits Name
  ,                                       !- Interpolate to Timestep
  6,                                      !- Hour 1
  0,                                      !- Minute 1
  0.05,                                   !- Value Until Time 1
  8,                                      !- Hour 2
  0,                                      !- Minute 2
  0.1,                                    !- Value Until Time 2
  14,                                     !- Hour 3
  0,                                      !- Minute 3
  0.5,                                    !- Value Until Time 3
  17,                                     !- Hour 4
  0,                                      !- Minute 4
  0.15,                                   !- Value Until Time 4
  24,                                     !- Hour 5
  0,                                      !- Minute 5
  0.05;                                   !- Value Until Time 5

OS:Schedule:Ruleset,
  {c50ff319-52b3-448e-99db-8e348bc64d7c}, !- Handle
  Medium Office Electric Equipment Schedule, !- Name
  {0c1e8a1f-f32b-4d26-8119-86d214b4a132}, !- Schedule Type Limits Name
  {6a958f8b-a21f-4118-86b7-c9a82233010e}, !- Default Day Schedule Name
  {e08600fe-ff12-484c-8776-e7d31bc876da}, !- Summer Design Day Schedule Name
  {fc065ee3-5a2f-4e9e-9eb7-64ed848cd241}; !- Winter Design Day Schedule Name

OS:Schedule:Day,
  {6a958f8b-a21f-4118-86b7-c9a82233010e}, !- Handle
  Medium Office Electric Equipment All Other Days Schedule, !- Name
  {0c1e8a1f-f32b-4d26-8119-86d214b4a132}, !- Schedule Type Limits Name
  ,                                       !- Interpolate to Timestep
  24,                                     !- Hour 1
  0,                                      !- Minute 1
  0.3;                                    !- Value Until Time 1

OS:Schedule:Day,
  {10b9c3ef-6b4f-4fe6-af5e-e1c2063cffe0}, !- Handle
  Medium Office Electric Equipment Summer Design Day Schedule, !- Name
  ,                                       !- Schedule Type Limits Name
  ,                                       !- Interpolate to Timestep
  6,                                      !- Hour 1
  0,                                      !- Minute 1
  1,                                      !- Value Until Time 1
  24,                                     !- Hour 2
  0,                                      !- Minute 2
  0;                                      !- Value Until Time 2

OS:Schedule:Day,
  {e08600fe-ff12-484c-8776-e7d31bc876da}, !- Handle
  Medium Office Electric Equipment Summer Design Day Schedule 1, !- Name
  {0c1e8a1f-f32b-4d26-8119-86d214b4a132}, !- Schedule Type Limits Name
  ,                                       !- Interpolate to Timestep
  6,                                      !- Hour 1
  0,                                      !- Minute 1
  1,                                      !- Value Until Time 1
  24,                                     !- Hour 2
  0,                                      !- Minute 2
  0;                                      !- Value Until Time 2

OS:Schedule:Day,
  {ff9d401e-cd4f-4e17-8cfc-99208b3e723c}, !- Handle
  Medium Office Electric Equipment Winter Design Day Schedule, !- Name
  ,                                       !- Schedule Type Limits Name
  ,                                       !- Interpolate to Timestep
  24,                                     !- Hour 1
  0,                                      !- Minute 1
  0;                                      !- Value Until Time 1

OS:Schedule:Day,
  {fc065ee3-5a2f-4e9e-9eb7-64ed848cd241}, !- Handle
  Medium Office Electric Equipment Winter Design Day Schedule 1, !- Name
  {0c1e8a1f-f32b-4d26-8119-86d214b4a132}, !- Schedule Type Limits Name
  ,                                       !- Interpolate to Timestep
  24,                                     !- Hour 1
  0,                                      !- Minute 1
  0;                                      !- Value Until Time 1

OS:Schedule:Rule,
  {18d55a08-d791-48f1-8ed3-7b620b27adeb}, !- Handle
  Medium Office Electric Equipment Schedule Weekdays Rule, !- Name
  {c50ff319-52b3-448e-99db-8e348bc64d7c}, !- Schedule Ruleset Name
  1,                                      !- Rule Order
  {cba94213-abbe-4916-ad29-da905c042717}, !- Day Schedule Name
  ,                                       !- Apply Sunday
  Yes,                                    !- Apply Monday
  Yes,                                    !- Apply Tuesday
  Yes,                                    !- Apply Wednesday
  Yes,                                    !- Apply Thursday
  Yes;                                    !- Apply Friday

OS:Schedule:Day,
  {cba94213-abbe-4916-ad29-da905c042717}, !- Handle
  Medium Office Electric Equipment Weekdays Schedule, !- Name
  {0c1e8a1f-f32b-4d26-8119-86d214b4a132}, !- Schedule Type Limits Name
  ,                                       !- Interpolate to Timestep
  8,                                      !- Hour 1
  0,                                      !- Minute 1
  0.4,                                    !- Value Until Time 1
  12,                                     !- Hour 2
  0,                                      !- Minute 2
  0.9,                                    !- Value Until Time 2
  13,                                     !- Hour 3
  0,                                      !- Minute 3
  0.8,                                    !- Value Until Time 3
  17,                                     !- Hour 4
  0,                                      !- Minute 4
  0.9,                                    !- Value Until Time 4
  18,                                     !- Hour 5
  0,                                      !- Minute 5
  0.8,                                    !- Value Until Time 5
  20,                                     !- Hour 6
  0,                                      !- Minute 6
  0.6,                                    !- Value Until Time 6
  22,                                     !- Hour 7
  0,                                      !- Minute 7
  0.5,                                    !- Value Until Time 7
  24,                                     !- Hour 8
  0,                                      !- Minute 8
  0.4;                                    !- Value Until Time 8

OS:Schedule:Rule,
  {3c0ce462-984c-49be-a445-e5369ee7c3c9}, !- Handle
  Medium Office Electric Equipment Schedule Saturday Rule, !- Name
  {c50ff319-52b3-448e-99db-8e348bc64d7c}, !- Schedule Ruleset Name
  0,                                      !- Rule Order
  {0ca14595-4e84-4b73-b46b-6a8b2a99725c}, !- Day Schedule Name
  ,                                       !- Apply Sunday
  ,                                       !- Apply Monday
  ,                                       !- Apply Tuesday
  ,                                       !- Apply Wednesday
  ,                                       !- Apply Thursday