
OS:Version,
  {06600a65-58cc-4699-b9da-2f06838e324b}, !- Handle
  0.11.6;                                 !- Version Identifier

OS:SimulationControl,
  {a0bb43b0-bc9f-46ea-8f77-ce6576bc7ec8}, !- Handle
  Yes,                                    !- Do Zone Sizing Calculation
  Yes,                                    !- Do System Sizing Calculation
  ,                                       !- Do Plant Sizing Calculation
  No,                                     !- Run Simulation for Sizing Periods
  Yes;                                    !- Run Simulation for Weather File Run Periods

OS:Timestep,
  {a73f24f4-8150-4678-b4f2-43fdc6f056a8}, !- Handle
  6;                                      !- Number of Timesteps per Hour

OS:RunPeriod,
  {b631e145-98bb-4124-9ac2-032412f27280}, !- Handle
  Run Period 1,                           !- Name
  1,                                      !- Begin Month
  1,                                      !- Begin Day of Month
  12,                                     !- End Month
  31,                                     !- End Day of Month
  No,                                     !- Use Weather File Holidays and Special Days
  No,                                     !- Use Weather File Daylight Saving Period
  No,                                     !- Apply Weekend Holiday Rule
  Yes,                                    !- Use Weather File Rain Indicators
  Yes,                                    !- Use Weather File Snow Indicators
  1;                                      !- Number of Times Runperiod to be Repeated

OS:SurfaceConvectionAlgorithm:Inside,
  {95894aff-e8a4-4492-831e-faf41e203723}, !- Handle
  TARP;                                   !- Algorithm

OS:SurfaceConvectionAlgorithm:Outside,
  {471f0051-cb1b-4316-b2d3-bba1a2f33236}, !- Handle
  DOE-2;                                  !- Algorithm

OS:HeatBalanceAlgorithm,
  {616bb98e-6dde-41c1-8536-c385813c3bea}, !- Handle
  ConductionTransferFunction,             !- Algorithm
  200;                                    !- Surface Temperature Upper Limit {F}

OS:ZoneAirHeatBalanceAlgorithm,
  {1433d3d0-50cb-4f0a-bbc8-7f1d3fff15d4}, !- Handle
  AnalyticalSolution;                     !- Algorithm

OS:ConvergenceLimits,
  {017c37b5-3908-4300-978b-db37cbba48e6}; !- Handle

OS:ShadowCalculation,
  {ceccd7c1-ff67-4caa-882f-3e471695033e}, !- Handle
  7,                                      !- Calculation Frequency
  15000;                                  !- Maximum Figures in Shadow Overlap Calculations

OS:Site,
  {072971eb-5f08-423e-b8f5-6a08385d2888}, !- Handle
  Site 1,                                 !- Name
  41.77,                                  !- Latitude {deg}
  -87.75,                                 !- Longitude {deg}
  -6,                                     !- Time Zone {hr}
  190,                                    !- Elevation {m}
  ;                                       !- Terrain

OS:Site:GroundTemperature:BuildingSurface,
  {0e666968-a28c-4679-b778-c349ea97e3f0}, !- Handle
  19.527,                                 !- January Ground Temperature {C}
  19.502,                                 !- February Ground Temperature {C}
  19.536,                                 !- March Ground Temperature {C}
  19.598,                                 !- April Ground Temperature {C}
  20.002,                                 !- May Ground Temperature {C}
  21.64,                                  !- June Ground Temperature {C}
  22.225,                                 !- July Ground Temperature {C}
  22.375,                                 !- August Ground Temperature {C}
  21.449,                                 !- September Ground Temperature {C}
  20.121,                                 !- October Ground Temperature {C}
  19.802,                                 !- November Ground Temperature {C}
  19.633;                                 !- December Ground Temperature {C}

OS:Site:WaterMainsTemperature,
  {af7addeb-aaac-4f72-bdd2-35871e2efdbf}, !- Handle
  Correlation,                            !- Calculation Method
  ,                                       !- Temperature Schedule Name
  9.69,                                   !- Annual Average Outdoor Air Temperature {C}
  28.1;                                   !- Maximum Difference In Monthly Average Outdoor Air Temperatures {deltaC}

OS:SizingPeriod:DesignDay,
  {b3a4cd6b-d042-4e11-bae4-103280ce0492}, !- Handle
  Sizing Period Design Day 1,             !- Name
  -20.6,                                  !- Maximum Dry-Bulb Temperature {C}
  0,                                      !- Daily Dry-Bulb Temperature Range {deltaC}
  -20.6,                                  !- Humidity Indicating Conditions at Maximum Dry-Bulb {BasedOnField A3}
  99063,                                  !- Barometric Pressure {Pa}
  4.9,                                    !- Wind Speed {m/s}
  270,                                    !- Wind Direction {deg}
  0,                                      !- Sky Clearness
  0,                                      !- Rain Indicator
  0,                                      !- Snow Indicator
  21,                                     !- Day of Month
  1,                                      !- Month
  WinterDesignDay,                        !- Day Type
  0,                                      !- Daylight Saving Time Indicator
  WetBulb,                                !- Humidity Indicating Type
  ,                                       !- Humidity Indicating Day Schedule Name
  DefaultMultipliers,                     !- Dry-Bulb Temperature Range Modifier Type
  ,                                       !- Dry-Bulb Temperature Range Modifier Schedule Name
  AshraeClearSky;                         !- Solar Model Indicator

OS:SizingPeriod:DesignDay,
  {c535b395-22d6-4e5a-8113-c7b6a0ff5823}, !- Handle
  Sizing Period Design Day 2,             !- Name
  33.2,                                   !- Maximum Dry-Bulb Temperature {C}
  10.7,                                   !- Daily Dry-Bulb Temperature Range {deltaC}
  23.8,                                   !- Humidity Indicating Conditions at Maximum Dry-Bulb {BasedOnField A3}
  99063,                                  !- Barometric Pressure {Pa}
  5.3,                                    !- Wind Speed {m/s}
  230,                                    !- Wind Direction {deg}
  1,                                      !- Sky Clearness
  0,                                      !- Rain Indicator
  0,                                      !- Snow Indicator
  21,                                     !- Day of Month
  7,                                      !- Month
  SummerDesignDay,                        !- Day Type
  0,                                      !- Daylight Saving Time Indicator
  WetBulb,                                !- Humidity Indicating Type
  ,                                       !- Humidity Indicating Day Schedule Name
  DefaultMultipliers,                     !- Dry-Bulb Temperature Range Modifier Type
  ,                                       !- Dry-Bulb Temperature Range Modifier Schedule Name
  AshraeClearSky;                         !- Solar Model Indicator

OS:ScheduleTypeLimits,
  {5c4a8d7d-b763-4506-b2e3-c4e19591b053}, !- Handle
  Temperature,                            !- Name
  -60,                                    !- Lower Limit Value {BasedOnField A4}
  200,                                    !- Upper Limit Value {BasedOnField A4}
  CONTINUOUS,                             !- Numeric Type
  Temperature;                            !- Unit Type

OS:DefaultScheduleSet,
  {aa10b947-7c20-4cd3-9cf6-fc8a2666bd3a}, !- Handle
  Default Schedules,                      !- Name
  ,                                       !- Hours of Operation Schedule Name
  {14ba5d3b-9bdd-4feb-b7c2-d7bfb61500ef}, !- Number of People Schedule Name
  {fe9cae88-dff3-47ad-afe6-af274e9a79b3}, !- People Activity Level Schedule Name
  {0bc71cc0-2bc4-4d79-80a7-603d0db5c89d}, !- Lighting Schedule Name
  {744ca4b3-605b-4cbb-a1d6-da9b0d90babd}, !- Electric Equipment Schedule Name
  {041979a7-1b00-465e-aa3f-41877980c24c}, !- Gas Equipment Schedule Name
  {e14ddb76-d6cf-4667-ac9f-fe7e82ac2ae4}, !- Hot Water Equipment Schedule Name
  {22274538-7ab3-40da-a612-bbf7b11d3634}, !- Infiltration Schedule Name
  ,                                       !- Steam Equipment Schedule Name
  ;                                       !- Other Equipment Schedule Name

OS:Schedule:Ruleset,
  {14ba5d3b-9bdd-4feb-b7c2-d7bfb61500ef}, !- Handle
  Medium Office Number of People Schedule, !- Name
  {2ac29582-9e9b-4f43-91d5-9d072ee57fe0}, !- Schedule Type Limits Name
  {3c285449-cd2e-4202-95be-092ee71b6dd6}, !- Default Day Schedule Name
  {156e0a10-7d4c-4c7d-a23a-1875317dcca2}; !- Summer Design Day Schedule Name

OS:Schedule:Day,
  {3c285449-cd2e-4202-95be-092ee71b6dd6}, !- Handle
  Medium Office Number of People All Other Days Schedule, !- Name
  {2ac29582-9e9b-4f43-91d5-9d072ee57fe0}, !- Schedule Type Limits Name
  ,                                       !- Interpolate to Timestep
  24,                                     !- Hour 1
  0,                                      !- Minute 1
  0;                                      !- Value Until Time 1

OS:Schedule:Day,
  {0efe47b7-676c-4c32-88ee-21f3dd384788}, !- Handle
  Medium Office Number of People Summer Design Day Schedule, !- Name
  ,                                       !- Schedule Type Limits Name
  ,                                       !- Interpolate to Timestep
  6,                                      !- Hour 1
  0,                                      !- Minute 1
  0,                                      !- Value Until Time 1
  22,                                     !- Hour 2
  0,                                      !- Minute 2
  1,                                      !- Value Until Time 2
  24,                                     !- Hour 3
  0,                                      !- Minute 3
  0.05;                                   !- Value Until Time 3

OS:Schedule:Day,
  {156e0a10-7d4c-4c7d-a23a-1875317dcca2}, !- Handle
  Medium Office Number of People Summer Design Day Schedule 1, !- Name
  {2ac29582-9e9b-4f43-91d5-9d072ee57fe0}, !- Schedule Type Limits Name
  ,                                       !- Interpolate to Timestep
  6,                                      !- Hour 1
  0,                                      !- Minute 1
  0,                                      !- Value Until Time 1
  22,                                     !- Hour 2
  0,                                      !- Minute 2
  1,                                      !- Value Until Time 2
  24,                                     !- Hour 3
  0,                                      !- Minute 3
  0.05;                                   !- Value Until Time 3

OS:Schedule:Rule,
  {e12ba632-d119-41ec-8458-1a9b10c77c63}, !- Handle
  Medium Office Number of People Schedule Weekdays Rule, !- Name
  {14ba5d3b-9bdd-4feb-b7c2-d7bfb61500ef}, !- Schedule Ruleset Name
  1,                                      !- Rule Order
  {f75eeaef-cbdb-40f3-9207-54987126f89a}, !- Day Schedule Name
  ,                                       !- Apply Sunday
  Yes,                                    !- Apply Monday
  Yes,                                    !- Apply Tuesday
  Yes,                                    !- Apply Wednesday
  Yes,                                    !- Apply Thursday
  Yes;                                    !- Apply Friday

OS:Schedule:Day,
  {f75eeaef-cbdb-40f3-9207-54987126f89a}, !- Handle
  Medium Office Number of People Weekdays Schedule, !- Name
  {2ac29582-9e9b-4f43-91d5-9d072ee57fe0}, !- Schedule Type Limits Name
  ,                                       !- Interpolate to Timestep
  6,                                      !- Hour 1
  0,                                      !- Minute 1
  0,                                      !- Value Until Time 1
  7,                                      !- Hour 2
  0,                                      !- Minute 2
  0.1,                                    !- Value Until Time 2
  8,                                      !- Hour 3
  0,                                      !- Minute 3
  0.2,                                    !- Value Until Time 3
  12,                                     !- Hour 4
  0,                                      !- Minute 4
  0.95,                                   !- Value Until Time 4
  13,                                     !- Hour 5
  0,                                      !- Minute 5
  0.5,                                    !- Value Until Time 5
  17,                                     !- Hour 6
  0,                                      !- Minute 6
  0.95,                                   !- Value Until Time 6
  18,                                     !- Hour 7
  0,                                      !- Minute 7
  0.7,                                    !- Value Until Time 7
  20,                                     !- Hour 8
  0,                                      !- Minute 8
  0.4,                                    !- Value Until Time 8
  22,                                     !- Hour 9
  0,                                      !- Minute 9
  0.1,                                    !- Value Until Time 9
  24,                                     !- Hour 10
  0,                                      !- Minute 10
  0.05;                                   !- Value Until Time 10

OS:Schedule:Rule,
  {8f73ca5c-3441-4df9-a0e9-8ccfa3894539}, !- Handle
  Medium Office Number of People Schedule Saturday Rule, !- Name
  {14ba5d3b-9bdd-4feb-b7c2-d7bfb61500ef}, !- Schedule Ruleset Name
  0,                                      !- Rule Order
  {01ffd7e0-c646-407b-b439-9602644316b8}, !- Day Schedule Name
  ,                                       !- Apply Sunday
  ,                                       !- Apply Monday
  ,                                       !- Apply Tuesday
  ,                                       !- Apply Wednesday
  ,                                       !- Apply Thursday
  ,                                       !- Apply Friday
  Yes;                                    !- Apply Saturday

OS:Schedule:Day,
  {01ffd7e0-c646-407b-b439-9602644316b8}, !- Handle
  Medium Office Number of People Saturday Schedule, !- Name
  {2ac29582-9e9b-4f43-91d5-9d072ee57fe0}, !- Schedule Type Limits Name
  ,                                       !- Interpolate to Timestep
  6,                                      !- Hour 1
  0,                                      !- Minute 1
  0,                                      !- Value Until Time 1
  8,                                      !- Hour 2
  0,                                      !- Minute 2
  0.1,                                    !- Value Until Time 2
  14,                                     !- Hour 3
  0,                                      !- Minute 3
  0.5,                                    !- Value Until Time 3
  17,                                     !- Hour 4
  0,                                      !- Minute 4
  0.1,                                    !- Value Until Time 4
  24,                                     !- Hour 5
  0,                                      !- Minute 5
  0;                                      !- Value Until Time 5

OS:ScheduleTypeLimits,
  {2ac29582-9e9b-4f43-91d5-9d072ee57fe0}, !- Handle
  Fractional,                             !- Name
  0,                                      !- Lower Limit Value {BasedOnField A4}
  1,                                      !- Upper Limit Value {BasedOnField A4}
  Continuous;                             !- Numeric Type

OS:Schedule:Ruleset,
  {fe9cae88-dff3-47ad-afe6-af274e9a79b3}, !- Handle
  Medium Office People Activity Level Schedule, !- Name
  {bf6878ad-6831-47de-8944-545a6ce3d87c}, !- Schedule Type Limits Name
  {912e751b-984f-4a58-afce-481d55a62203}; !- Default Day Schedule Name

OS:Schedule:Day,
  {912e751b-984f-4a58-afce-481d55a62203}, !- Handle
  Medium Office People Activity Level All Days Schedule, !- Name
  {bf6878ad-6831-47de-8944-545a6ce3d87c}, !- Schedule Type Limits Name
  ,                                       !- Interpolate to Timestep
  24,                                     !- Hour 1
  0,                                      !- Minute 1
  120;                                    !- Value Until Time 1

OS:ScheduleTypeLimits,
  {bf6878ad-6831-47de-8944-545a6ce3d87c}, !- Handle
  ActivityLevel,                          !- Name
  0,                                      !- Lower Limit Value {BasedOnField A4}
  ,                                       !- Upper Limit Value {BasedOnField A4}
  Continuous,                             !- Numeric Type
  ActivityLevel;                          !- Unit Type

OS:Schedule:Ruleset,
  {0bc71cc0-2bc4-4d79-80a7-603d0db5c89d}, !- Handle
  Medium Office Lighting Schedule,        !- Name
  {2ac29582-9e9b-4f43-91d5-9d072ee57fe0}, !- Schedule Type Limits Name
  {cdf880b3-2522-4db1-b3fd-f649704dda8e}, !- Default Day Schedule Name
  {3d1af424-cc1b-4d2b-81be-dbde35dd54e9}, !- Summer Design Day Schedule Name
  {9edc5fb9-c992-42b6-9daf-3346dad5776b}; !- Winter Design Day Schedule Name

OS:Schedule:Day,
  {cdf880b3-2522-4db1-b3fd-f649704dda8e}, !- Handle
  Medium Office Lighting All Other Days Schedule, !- Name
  {2ac29582-9e9b-4f43-91d5-9d072ee57fe0}, !- Schedule Type Limits Name
  ,                                       !- Interpolate to Timestep
  24,                                     !- Hour 1
  0,                                      !- Minute 1
  0.05;                                   !- Value Until Time 1

OS:Schedule:Day,
  {6324bca0-ff8f-4a4e-8dfa-59999dfa2d47}, !- Handle
  Medium Office Lighting Summer Design Day Schedule, !- Name
  ,                                       !- Schedule Type Limits Name
  ,                                       !- Interpolate to Timestep
  6,                                      !- Hour 1
  0,                                      !- Minute 1
  1,                                      !- Value Until Time 1
  24,                                     !- Hour 2
  0,                                      !- Minute 2
  0;                                      !- Value Until Time 2

OS:Schedule:Day,
  {3d1af424-cc1b-4d2b-81be-dbde35dd54e9}, !- Handle
  Medium Office Lighting Summer Design Day Schedule 1, !- Name
  {2ac29582-9e9b-4f43-91d5-9d072ee57fe0}, !- Schedule Type Limits Name
  ,                                       !- Interpolate to Timestep
  6,                                      !- Hour 1
  0,                                      !- Minute 1
  1,                                      !- Value Until Time 1
  24,                                     !- Hour 2
  0,                                      !- Minute 2
  0;                                      !- Value Until Time 2

OS:Schedule:Day,
  {8c89e6ce-892d-4d44-b718-48dd998724e5}, !- Handle
  Medium Office Lighting Winter Design Day Schedule, !- Name
  ,                                       !- Schedule Type Limits Name
  ,                                       !- Interpolate to Timestep
  24,                                     !- Hour 1
  0,                                      !- Minute 1
  0;                                      !- Value Until Time 1

OS:Schedule:Day,
  {9edc5fb9-c992-42b6-9daf-3346dad5776b}, !- Handle
  Medium Office Lighting Winter Design Day Schedule 1, !- Name
  {2ac29582-9e9b-4f43-91d5-9d072ee57fe0}, !- Schedule Type Limits Name
  ,                                       !- Interpolate to Timestep
  24,                                     !- Hour 1
  0,                                      !- Minute 1
  0;                                      !- Value Until Time 1

OS:Schedule:Rule,
  {7f51d392-84e7-4006-8492-c73a31d37dd1}, !- Handle
  Medium Office Lighting Schedule Weekdays Rule, !- Name
  {0bc71cc0-2bc4-4d79-80a7-603d0db5c89d}, !- Schedule Ruleset Name
  1,                                      !- Rule Order
  {ad2589a8-ebec-4d8f-90ed-60d7b596295f}, !- Day Schedule Name
  ,                                       !- Apply Sunday
  Yes,                                    !- Apply Monday
  Yes,                                    !- Apply Tuesday
  Yes,                                    !- Apply Wednesday
  Yes,                                    !- Apply Thursday
  Yes;                                    !- Apply Friday

OS:Schedule:Day,
  {ad2589a8-ebec-4d8f-90ed-60d7b596295f}, !- Handle
  Medium Office Lighting Weekdays Schedule, !- Name
  {2ac29582-9e9b-4f43-91d5-9d072ee57fe0}, !- Schedule Type Limits Name
  ,                                       !- Interpolate to Timestep
  5,                                      !- Hour 1
  0,                                      !- Minute 1
  0.05,                                   !- Value Until Time 1
  7,                                      !- Hour 2
  0,                                      !- Minute 2
  0.1,                                    !- Value Until Time 2
  8,                                      !- Hour 3
  0,                                      !- Minute 3
  0.3,                                    !- Value Until Time 3
  17,                                     !- Hour 4
  0,                                      !- Minute 4
  0.9,                                    !- Value Until Time 4
  18,                                     !- Hour 5
  0,                                      !- Minute 5
  0.7,                                    !- Value Until Time 5
  20,                                     !- Hour 6
  0,                                      !- Minute 6
  0.5,                                    !- Value Until Time 6
  22,                                     !- Hour 7
  0,                                      !- Minute 7
  0.3,                                    !- Value Until Time 7
  23,                                     !- Hour 8
  0,                                      !- Minute 8
  0.1,                                    !- Value Until Time 8
  24,                                     !- Hour 9
  0,                                      !- Minute 9
  0.05;                                   !- Value Until Time 9

OS:Schedule:Rule,
  {9043cfdc-3276-456c-97f0-1a859091eab7}, !- Handle
  Medium Office Lighting Schedule Saturday Rule, !- Name
  {0bc71cc0-2bc4-4d79-80a7-603d0db5c89d}, !- Schedule Ruleset Name
  0,                                      !- Rule Order
  {da472163-047e-4e18-98f3-ced9a9f6cccd}, !- Day Schedule Name
  ,                                       !- Apply Sunday
  ,                                       !- Apply Monday
  ,                                       !- Apply Tuesday
  ,                                       !- Apply Wednesday
  ,                                       !- Apply Thursday
  ,                                       !- Apply Friday
  Yes;                                    !- Apply Saturday

OS:Schedule:Day,
  {da472163-047e-4e18-98f3-ced9a9f6cccd}, !- Handle
  Medium Office Lighting Saturday Schedule, !- Name
  {2ac29582-9e9b-4f43-91d5-9d072ee57fe0}, !- Schedule Type Limits Name
  ,                                       !- Interpolate to Timestep
  6,                                      !- Hour 1
  0,                                      !- Minute 1
  0.05,                                   !- Value Until Time 1
  8,                                      !- Hour 2
  0,                                      !- Minute 2
  0.1,                                    !- Value Until Time 2
  14,                                     !- Hour 3
  0,                                      !- Minute 3
  0.5,                                    !- Value Until Time 3
  17,                                     !- Hour 4
  0,                                      !- Minute 4
  0.15,                                   !- Value Until Time 4
  24,                                     !- Hour 5
  0,                                      !- Minute 5
  0.05;                                   !- Value Until Time 5

OS:Schedule:Ruleset,
  {744ca4b3-605b-4cbb-a1d6-da9b0d90babd}, !- Handle
  Medium Office Electric Equipment Schedule, !- Name
  {2ac29582-9e9b-4f43-91d5-9d072ee57fe0}, !- Schedule Type Limits Name
  {1364aa70-1f9c-4521-8c50-a0c0c69f4bfd}, !- Default Day Schedule Name
  {e273aa65-f1eb-4007-9858-0294e91b5364}, !- Summer Design Day Schedule Name
  {293e596e-7882-4416-9eb6-571a118440a7}; !- Winter Design Day Schedule Name

OS:Schedule:Day,
  {1364aa70-1f9c-4521-8c50-a0c0c69f4bfd}, !- Handle
  Medium Office Electric Equipment All Other Days Schedule, !- Name
  {2ac29582-9e9b-4f43-91d5-9d072ee57fe0}, !- Schedule Type Limits Name
  ,                                       !- Interpolate to Timestep
  24,                                     !- Hour 1
  0,                                      !- Minute 1
  0.3;                                    !- Value Until Time 1

OS:Schedule:Day,
  {9aac7940-0450-4cff-92e9-1883c2230e87}, !- Handle
  Medium Office Electric Equipment Summer Design Day Schedule, !- Name
  ,                                       !- Schedule Type Limits Name
  ,                                       !- Interpolate to Timestep
  6,                                      !- Hour 1
  0,                                      !- Minute 1
  1,                                      !- Value Until Time 1
  24,                                     !- Hour 2
  0,                                      !- Minute 2
  0;                                      !- Value Until Time 2

OS:Schedule:Day,
  {e273aa65-f1eb-4007-9858-0294e91b5364}, !- Handle
  Medium Office Electric Equipment Summer Design Day Schedule 1, !- Name
  {2ac29582-9e9b-4f43-91d5-9d072ee57fe0}, !- Schedule Type Limits Name
  ,                                       !- Interpolate to Timestep
  6,                                      !- Hour 1
  0,                                      !- Minute 1
  1,                                      !- Value Until Time 1
  24,                                     !- Hour 2
  0,                                      !- Minute 2
  0;                                      !- Value Until Time 2

OS:Schedule:Day,
  {bd356583-71a6-4e3e-8bd0-65e5aab812be}, !- Handle
  Medium Office Electric Equipment Winter Design Day Schedule, !- Name
  ,                                       !- Schedule Type Limits Name
  ,                                       !- Interpolate to Timestep
  24,                                     !- Hour 1
  0,                                      !- Minute 1
  0;                                      !- Value Until Time 1

OS:Schedule:Day,
  {293e596e-7882-4416-9eb6-571a118440a7}, !- Handle
  Medium Office Electric Equipment Winter Design Day Schedule 1, !- Name
  {2ac29582-9e9b-4f43-91d5-9d072ee57fe0}, !- Schedule Type Limits Name
  ,                                       !- Interpolate to Timestep
  24,                                     !- Hour 1
  0,                                      !- Minute 1
  0;                                      !- Value Until Time 1

OS:Schedule:Rule,
  {68c34f47-bf86-46fc-94f1-fcfd80e9dce2}, !- Handle
  Medium Office Electric Equipment Schedule Weekdays Rule, !- Name
  {744ca4b3-605b-4cbb-a1d6-da9b0d90babd}, !- Schedule Ruleset Name
  1,                                      !- Rule Order
  {d38465f2-ad7a-4a09-9aeb-497afa93f55e}, !- Day Schedule Name
  ,                                       !- Apply Sunday
  Yes,                                    !- Apply Monday
  Yes,                                    !- Apply Tuesday
  Yes,                                    !- Apply Wednesday
  Yes,                                    !- Apply Thursday
  Yes;                                    !- Apply Friday

OS:Schedule:Day,
  {d38465f2-ad7a-4a09-9aeb-497afa93f55e}, !- Handle
  Medium Office Electric Equipment Weekdays Schedule, !- Name
  {2ac29582-9e9b-4f43-91d5-9d072ee57fe0}, !- Schedule Type Limits Name
  ,                                       !- Interpolate to Timestep
  8,                                      !- Hour 1
  0,                                      !- Minute 1
  0.4,                                    !- Value Until Time 1
  12,                                     !- Hour 2
  0,                                      !- Minute 2
  0.9,                                    !- Value Until Time 2
  13,                                     !- Hour 3
  0,                                      !- Minute 3
  0.8,                                    !- Value Until Time 3
  17,                                     !- Hour 4
  0,                                      !- Minute 4
  0.9,                                    !- Value Until Time 4
  18,                                     !- Hour 5
  0,                                      !- Minute 5
  0.8,                                    !- Value Until Time 5
  20,                                     !- Hour 6
  0,                                      !- Minute 6
  0.6,                                    !- Value Until Time 6
  22,                                     !- Hour 7
  0,                                      !- Minute 7
  0.5,                                    !- Value Until Time 7
  24,                                     !- Hour 8
  0,                                      !- Minute 8
  0.4;                                    !- Value Until Time 8

OS:Schedule:Rule,
  {9445df83-d3a0-4fad-a5e9-e85071ee1915}, !- Handle
  Medium Office Electric Equipment Schedule Saturday Rule, !- Name
  {744ca4b3-605b-4cbb-a1d6-da9b0d90babd}, !- Schedule Ruleset Name
  0,                                      !- Rule Order
  {2e966b51-8b3c-475d-bec3-03f56f77bafd}, !- Day Schedule Name
  ,                                       !- Apply Sunday
  ,                                       !- Apply Monday
  ,                                       !- Apply Tuesday
  ,                                       !- Apply Wednesday