
OS:Version,
  {c23de9a0-083e-49b9-843c-3008f64ac27b}, !- Handle
  3.9.0;                                  !- Version Identifier

OS:GroundHeatExchanger:Vertical,
  {bc2f2f69-fa65-42c9-8f1b-5887bfebd17d}, !- Handle
  Ground Heat Exchanger Vertical 1,       !- Name
  ,                                       !- Inlet Node Name
  ,                                       !- Outlet Node Name
  0.0033,                                 !- Design Flow Rate {m3/s}
  120,                                    !- Number of Bore Holes
  76.2,                                   !- Bore Hole Length {m}
  0.063508,                               !- Bore Hole Radius {m}
  0.692626,                               !- Ground Thermal Conductivity {W/m-K}
  2347000,                                !- Ground Thermal Heat Capacity {J/m3-K}
  13.375,                                 !- Ground Temperature {C}
  0.692626,                               !- Grout Thermal Conductivity {W/m-K}
  0.391312,                               !- Pipe Thermal Conductivity {W/m-K}
  0.0266667,                              !- Pipe Out Diameter {m}
  0.0253977,                              !- U-Tube Distance {m}
  0.00241285,                             !- Pipe Thickness {m}
  2,                                      !- Maximum Length of Simulation
  {1da197d6-5c3f-4d28-af88-8d9f74332cd4}, !- Undisturbed Ground Temperature Model
  0.0005,                                 !- G-Function Reference Ratio {dimensionless}
  -15.2996,                               !- G-Function Ln(T/Ts) Value 1
  -0.348322,                              !- G-Function G Value 1
  -14.201,                                !- G-Function Ln(T/Ts) Value 2
  0.022208,                               !- G-Function G Value 2
  -13.2202,                               !- G-Function Ln(T/Ts) Value 3
  0.412345,                               !- G-Function G Value 3
  -12.2086,                               !- G-Function Ln(T/Ts) Value 4
  0.867498,                               !- G-Function G Value 4
  -11.1888,                               !- G-Function Ln(T/Ts) Value 5
  1.357839,                               !- G-Function G Value 5
  -10.1816,                               !- G-Function Ln(T/Ts) Value 6
  1.852024,                               !- G-Function G Value 6
  -9.1815,                                !- G-Function Ln(T/Ts) Value 7
  2.345656,                               !- G-Function G Value 7
  -8.6809,                                !- G-Function Ln(T/Ts) Value 8
  2.593958,                               !- G-Function G Value 8
  -8.5,                                   !- G-Function Ln(T/Ts) Value 9
  2.679,                                  !- G-Function G Value 9
  -7.8,                                   !- G-Function Ln(T/Ts) Value 10
  3.023,                                  !- G-Function G Value 10
  -7.2,                                   !- G-Function Ln(T/Ts) Value 11
  3.32,                                   !- G-Function G Value 11
  -6.5,                                   !- G-Function Ln(T/Ts) Value 12
  3.681,                                  !- G-Function G Value 12
  -5.9,                                   !- G-Function Ln(T/Ts) Value 13
  4.071,                                  !- G-Function G Value 13
  -5.2,                                   !- G-Function Ln(T/Ts) Value 14
  4.828,                                  !- G-Function G Value 14
  -4.5,                                   !- G-Function Ln(T/Ts) Value 15
  6.253,                                  !- G-Function G Value 15
  -3.963,                                 !- G-Function Ln(T/Ts) Value 16
  7.894,                                  !- G-Function G Value 16
  -3.27,                                  !- G-Function Ln(T/Ts) Value 17
  11.82,                                  !- G-Function G Value 17
  -2.864,                                 !- G-Function Ln(T/Ts) Value 18
  15.117,                                 !- G-Function G Value 18
  -2.577,                                 !- G-Function Ln(T/Ts) Value 19
  18.006,                                 !- G-Function G Value 19
  -2.171,                                 !- G-Function Ln(T/Ts) Value 20
  22.887,                                 !- G-Function G Value 20
  -1.884,                                 !- G-Function Ln(T/Ts) Value 21
  26.924,                                 !- G-Function G Value 21
  -1.191,                                 !- G-Function Ln(T/Ts) Value 22
  38.004,                                 !- G-Function G Value 22
  -0.497,                                 !- G-Function Ln(T/Ts) Value 23
  49.919,                                 !- G-Function G Value 23
  -0.274,                                 !- G-Function Ln(T/Ts) Value 24
  53.407,                                 !- G-Function G Value 24
  -0.051,                                 !- G-Function Ln(T/Ts) Value 25
  56.632,                                 !- G-Function G Value 25
  0.196,                                  !- G-Function Ln(T/Ts) Value 26
  59.825,                                 !- G-Function G Value 26
  0.419,                                  !- G-Function Ln(T/Ts) Value 27
  62.349,                                 !- G-Function G Value 27
  0.642,                                  !- G-Function Ln(T/Ts) Value 28
  64.524,                                 !- G-Function G Value 28
  0.873,                                  !- G-Function Ln(T/Ts) Value 29
  66.412,                                 !- G-Function G Value 29
  1.112,                                  !- G-Function Ln(T/Ts) Value 30
  67.993,                                 !- G-Function G Value 30
  1.335,                                  !- G-Function Ln(T/Ts) Value 31
  69.162,                                 !- G-Function G Value 31
  1.679,                                  !- G-Function Ln(T/Ts) Value 32
  70.476,                                 !- G-Function G Value 32
  2.028,                                  !- G-Function Ln(T/Ts) Value 33
  71.361,                                 !- G-Function G Value 33
  2.275,                                  !- G-Function Ln(T/Ts) Value 34
  71.79,                                  !- G-Function G Value 34
  3.003,                                  !- G-Function Ln(T/Ts) Value 35
  72.511;                                 !- G-Function G Value 35

OS:Site:GroundTemperature:Undisturbed:KusudaAchenbach,
  {1da197d6-5c3f-4d28-af88-8d9f74332cd4}, !- Handle
  Site Ground Temperature Undisturbed Kusuda Achenbach 1, !- Name
  0.692626,                               !- Soil Thermal Conductivity {W/m-K}
  920,                                    !- Soil Density {kg/m3}
  2551.08695652174,                       !- Soil Specific Heat {J/kg-K}
  13.375,                                 !- Average Soil Surface Temperature {C}
  3.2,                                    !- Average Amplitude of Surface Temperature {deltaC}
  8;                                      !- Phase Shift of Minimum Surface Temperature {days}

