
OS:Version,
  {c099f3c3-857e-4e52-9fee-d77847582610}, ! Handle
  0.9.4;                                  ! Version Identifier

OS:SimulationControl,
  {9a1ec487-9029-4f73-8f7b-47b3ddbced0d}, ! Handle
  Yes,                                    ! Do Zone Sizing Calculation
  Yes,                                    ! Do System Sizing Calculation
  ,                                       ! Do Plant Sizing Calculation
  No,                                     ! Run Simulation for Sizing Periods
  Yes;                                    ! Run Simulation for Weather File Run Periods

OS:Timestep,
  {d313d8af-7364-414b-ba89-fb3757a85383}, ! Handle
  6;                                      ! Number of Timesteps per Hour

OS:RunPeriod,
  {39807373-b119-4482-b136-86084f3e85d2}, ! Handle
  Run Period 1,                           ! Name
  1,                                      ! Begin Month
  1,                                      ! Begin Day of Month
  12,                                     ! End Month
  31,                                     ! End Day of Month
  No,                                     ! Use Weather File Holidays and Special Days
  No,                                     ! Use Weather File Daylight Saving Period
  No,                                     ! Apply Weekend Holiday Rule
  Yes,                                    ! Use Weather File Rain Indicators
  Yes,                                    ! Use Weather File Snow Indicators
  1;                                      ! Number of Times Runperiod to be Repeated

OS:SurfaceConvectionAlgorithm:Inside,
  {53e00920-5c71-4261-ac9c-f0081b9962ab}, ! Handle
  TARP;                                   ! Algorithm

OS:SurfaceConvectionAlgorithm:Outside,
  {8ad1a89f-bbc0-46b0-9c5c-2757b43986c3}, ! Handle
  DOE-2;                                  ! Algorithm

OS:HeatBalanceAlgorithm,
  {9e351162-3577-4598-92c4-cbca25abace7}, ! Handle
  ConductionTransferFunction,             ! Algorithm
  200;                                    ! Surface Temperature Upper Limit {F}

OS:ZoneAirHeatBalanceAlgorithm,
  {576e595a-b6ba-4d2e-91b9-9ae9254b4e87}, ! Handle
  AnalyticalSolution;                     ! Algorithm

OS:ConvergenceLimits,
  {ec58f512-74d6-438c-8bfd-c9b796090ba2}; ! Handle

OS:ShadowCalculation,
  {7bbf20d9-a8d1-4142-a645-870f37281779}, ! Handle
  7,                                      ! Calculation Frequency
  15000;                                  ! Maximum Figures in Shadow Overlap Calculations

OS:Site,
  {6ed15b18-a115-4362-8f3f-69119c632700}, ! Handle
  Site 1,                                 ! Name
  41.77,                                  ! Latitude {deg}
  -87.75,                                 ! Longitude {deg}
  -6,                                     ! Time Zone {hr}
  190,                                    ! Elevation {m}
  ;                                       ! Terrain

OS:Site:GroundTemperature:BuildingSurface,
  {673fd59d-a9da-4537-848e-47488816bff1}, ! Handle
  19.527,                                 ! January Ground Temperature {C}
  19.502,                                 ! February Ground Temperature {C}
  19.536,                                 ! March Ground Temperature {C}
  19.598,                                 ! April Ground Temperature {C}
  20.002,                                 ! May Ground Temperature {C}
  21.64,                                  ! June Ground Temperature {C}
  22.225,                                 ! July Ground Temperature {C}
  22.375,                                 ! August Ground Temperature {C}
  21.449,                                 ! September Ground Temperature {C}
  20.121,                                 ! October Ground Temperature {C}
  19.802,                                 ! November Ground Temperature {C}
  19.633;                                 ! December Ground Temperature {C}

OS:Site:WaterMainsTemperature,
  {566763a2-309a-4aaf-a08a-5c1ee00f1c7d}, ! Handle
  Correlation,                            ! Calculation Method
  ,                                       ! Temperature Schedule Name
  9.69,                                   ! Annual Average Outdoor Air Temperature {C}
  28.1;                                   ! Maximum Difference In Monthly Average Outdoor Air Temperatures {deltaC}

OS:SizingPeriod:DesignDay,
  {3c17fe8d-d62e-4dae-a770-6be5755b5b2b}, ! Handle
  Sizing Period Design Day 1,             ! Name
  -20.6,                                  ! Maximum Dry-Bulb Temperature {C}
  0,                                      ! Daily Dry-Bulb Temperature Range {deltaC}
  -20.6,                                  ! Humidity Indicating Conditions at Maximum Dry-Bulb {BasedOnField A3}
  99063,                                  ! Barometric Pressure {Pa}
  4.9,                                    ! Wind Speed {m/s}
  270,                                    ! Wind Direction {deg}
  0,                                      ! Sky Clearness
  0,                                      ! Rain Indicator
  0,                                      ! Snow Indicator
  21,                                     ! Day of Month
  1,                                      ! Month
  WinterDesignDay,                        ! Day Type
  0,                                      ! Daylight Saving Time Indicator
  WetBulb,                                ! Humidity Indicating Type
  ,                                       ! Humidity Indicating Day Schedule Name
  DefaultMultipliers,                     ! Dry-Bulb Temperature Range Modifier Type
  ,                                       ! Dry-Bulb Temperature Range Modifier Schedule Name
  AshraeClearSky;                         ! Solar Model Indicator

OS:SizingPeriod:DesignDay,
  {43aba76d-b5e7-4694-bd5b-279c60cc2bbe}, ! Handle
  Sizing Period Design Day 2,             ! Name
  33.2,                                   ! Maximum Dry-Bulb Temperature {C}
  10.7,                                   ! Daily Dry-Bulb Temperature Range {deltaC}
  23.8,                                   ! Humidity Indicating Conditions at Maximum Dry-Bulb {BasedOnField A3}
  99063,                                  ! Barometric Pressure {Pa}
  5.3,                                    ! Wind Speed {m/s}
  230,                                    ! Wind Direction {deg}
  1,                                      ! Sky Clearness
  0,                                      ! Rain Indicator
  0,                                      ! Snow Indicator
  21,                                     ! Day of Month
  7,                                      ! Month
  SummerDesignDay,                        ! Day Type
  0,                                      ! Daylight Saving Time Indicator
  WetBulb,                                ! Humidity Indicating Type
  ,                                       ! Humidity Indicating Day Schedule Name
  DefaultMultipliers,                     ! Dry-Bulb Temperature Range Modifier Type
  ,                                       ! Dry-Bulb Temperature Range Modifier Schedule Name
  AshraeClearSky;                         ! Solar Model Indicator

OS:ScheduleTypeLimits,
  {f1a86b37-3983-4290-9e26-16df0fdc5b0a}, ! Handle
  Temperature,                            ! Name
  -60,                                    ! Lower Limit Value {BasedOnField A4}
  200,                                    ! Upper Limit Value {BasedOnField A4}
  CONTINUOUS,                             ! Numeric Type
  Temperature;                            ! Unit Type

OS:DefaultScheduleSet,
  {06853590-6dc4-4132-8730-e52005879cc1}, ! Handle
  Default Schedules,                      ! Name
  ,                                       ! Hours of Operation Schedule Name
  {df25121c-cddf-470e-88e5-da260db18fdc}, ! Number of People Schedule Name
  {c6fac2fb-dbdd-4c63-b8e2-73cbd86c9743}, ! People Activity Level Schedule Name
  {1d7d6003-81a3-4db0-b5a5-1a90601c4a26}, ! Lighting Schedule Name
  {25529016-1f02-4158-9565-bbb860a48a6f}, ! Electric Equipment Schedule Name
  {86769166-5657-4839-84e6-9f62c2cc7de9}, ! Gas Equipment Schedule Name
  {0f5075a6-c0ff-4a96-a60b-06a467b5bb86}, ! Hot Water Equipment Schedule Name
  {5073e0db-f487-4055-ae6d-3d2da69e7e5b}, ! Infiltration Schedule Name
  ,                                       ! Steam Equipment Schedule Name
  ;                                       ! Other Equipment Schedule Name

OS:Schedule:Ruleset,
  {df25121c-cddf-470e-88e5-da260db18fdc}, ! Handle
  Medium Office Number of People Schedule, ! Name
  {386865b0-ec4c-4281-9185-48236f08f7ac}, ! Schedule Type Limits Name
  {15834b8f-96ff-4a7c-b36e-f2c7fc35af7f}, ! Default Day Schedule Name
  {c6b099e1-ac9b-4780-9e30-f06fd70857f4}; ! Summer Design Day Schedule Name

OS:Schedule:Day,
  {15834b8f-96ff-4a7c-b36e-f2c7fc35af7f}, ! Handle
  Medium Office Number of People All Other Days Schedule, ! Name
  {386865b0-ec4c-4281-9185-48236f08f7ac}, ! Schedule Type Limits Name
  ,                                       ! Interpolate to Timestep
  24,                                     ! Hour 1
  0,                                      ! Minute 1
  0;                                      ! Value Until Time 1

OS:Schedule:Day,
  {2a0cd386-a59d-4f04-9351-8d18c8594834}, ! Handle
  Medium Office Number of People Summer Design Day Schedule, ! Name
  ,                                       ! Schedule Type Limits Name
  ,                                       ! Interpolate to Timestep
  6,                                      ! Hour 1
  0,                                      ! Minute 1
  0,                                      ! Value Until Time 1
  22,                                     ! Hour 2
  0,                                      ! Minute 2
  1,                                      ! Value Until Time 2
  24,                                     ! Hour 3
  0,                                      ! Minute 3
  0.05;                                   ! Value Until Time 3

OS:Schedule:Day,
  {c6b099e1-ac9b-4780-9e30-f06fd70857f4}, ! Handle
  Medium Office Number of People Summer Design Day Schedule 1, ! Name
  {386865b0-ec4c-4281-9185-48236f08f7ac}, ! Schedule Type Limits Name
  ,                                       ! Interpolate to Timestep
  6,                                      ! Hour 1
  0,                                      ! Minute 1
  0,                                      ! Value Until Time 1
  22,                                     ! Hour 2
  0,                                      ! Minute 2
  1,                                      ! Value Until Time 2
  24,                                     ! Hour 3
  0,                                      ! Minute 3
  0.05;                                   ! Value Until Time 3

OS:Schedule:Rule,
  {7b8dde38-69b9-4c58-8cbf-6bb53d615fa7}, ! Handle
  Medium Office Number of People Schedule Weekdays Rule, ! Name
  {df25121c-cddf-470e-88e5-da260db18fdc}, ! Schedule Ruleset Name
  1,                                      ! Rule Order
  {676d1089-9f4b-4a31-aceb-98f47557ef83}, ! Day Schedule Name
  ,                                       ! Apply Sunday
  Yes,                                    ! Apply Monday
  Yes,                                    ! Apply Tuesday
  Yes,                                    ! Apply Wednesday
  Yes,                                    ! Apply Thursday
  Yes;                                    ! Apply Friday

OS:Schedule:Day,
  {676d1089-9f4b-4a31-aceb-98f47557ef83}, ! Handle
  Medium Office Number of People Weekdays Schedule, ! Name
  {386865b0-ec4c-4281-9185-48236f08f7ac}, ! Schedule Type Limits Name
  ,                                       ! Interpolate to Timestep
  6,                                      ! Hour 1
  0,                                      ! Minute 1
  0,                                      ! Value Until Time 1
  7,                                      ! Hour 2
  0,                                      ! Minute 2
  0.1,                                    ! Value Until Time 2
  8,                                      ! Hour 3
  0,                                      ! Minute 3
  0.2,                                    ! Value Until Time 3
  12,                                     ! Hour 4
  0,                                      ! Minute 4
  0.95,                                   ! Value Until Time 4
  13,                                     ! Hour 5
  0,                                      ! Minute 5
  0.5,                                    ! Value Until Time 5
  17,                                     ! Hour 6
  0,                                      ! Minute 6
  0.95,                                   ! Value Until Time 6
  18,                                     ! Hour 7
  0,                                      ! Minute 7
  0.7,                                    ! Value Until Time 7
  20,                                     ! Hour 8
  0,                                      ! Minute 8
  0.4,                                    ! Value Until Time 8
  22,                                     ! Hour 9
  0,                                      ! Minute 9
  0.1,                                    ! Value Until Time 9
  24,                                     ! Hour 10
  0,                                      ! Minute 10
  0.05;                                   ! Value Until Time 10

OS:Schedule:Rule,
  {a8ba76ab-774e-4ba7-ae90-c2f9d4f06643}, ! Handle
  Medium Office Number of People Schedule Saturday Rule, ! Name
  {df25121c-cddf-470e-88e5-da260db18fdc}, ! Schedule Ruleset Name
  0,                                      ! Rule Order
  {21e938f1-6bf1-448e-ae3c-fc67ab05891f}, ! Day Schedule Name
  ,                                       ! Apply Sunday
  ,                                       ! Apply Monday
  ,                                       ! Apply Tuesday
  ,                                       ! Apply Wednesday
  ,                                       ! Apply Thursday
  ,                                       ! Apply Friday
  Yes;                                    ! Apply Saturday

OS:Schedule:Day,
  {21e938f1-6bf1-448e-ae3c-fc67ab05891f}, ! Handle
  Medium Office Number of People Saturday Schedule, ! Name
  {386865b0-ec4c-4281-9185-48236f08f7ac}, ! Schedule Type Limits Name
  ,                                       ! Interpolate to Timestep
  6,                                      ! Hour 1
  0,                                      ! Minute 1
  0,                                      ! Value Until Time 1
  8,                                      ! Hour 2
  0,                                      ! Minute 2
  0.1,                                    ! Value Until Time 2
  14,                                     ! Hour 3
  0,                                      ! Minute 3
  0.5,                                    ! Value Until Time 3
  17,                                     ! Hour 4
  0,                                      ! Minute 4
  0.1,                                    ! Value Until Time 4
  24,                                     ! Hour 5
  0,                                      ! Minute 5
  0;                                      ! Value Until Time 5

OS:ScheduleTypeLimits,
  {386865b0-ec4c-4281-9185-48236f08f7ac}, ! Handle
  Fractional,                             ! Name
  0,                                      ! Lower Limit Value {BasedOnField A4}
  1,                                      ! Upper Limit Value {BasedOnField A4}
  Continuous;                             ! Numeric Type

OS:Schedule:Ruleset,
  {c6fac2fb-dbdd-4c63-b8e2-73cbd86c9743}, ! Handle
  Medium Office People Activity Level Schedule, ! Name
  {a07953a7-e5fb-4d96-b3fb-b0b3c1cf8df8}, ! Schedule Type Limits Name
  {40693847-7dae-4265-a2f3-12804af26f69}; ! Default Day Schedule Name

OS:Schedule:Day,
  {40693847-7dae-4265-a2f3-12804af26f69}, ! Handle
  Medium Office People Activity Level All Days Schedule, ! Name
  {a07953a7-e5fb-4d96-b3fb-b0b3c1cf8df8}, ! Schedule Type Limits Name
  ,                                       ! Interpolate to Timestep
  24,                                     ! Hour 1
  0,                                      ! Minute 1
  120;                                    ! Value Until Time 1

OS:ScheduleTypeLimits,
  {a07953a7-e5fb-4d96-b3fb-b0b3c1cf8df8}, ! Handle
  ActivityLevel,                          ! Name
  0,                                      ! Lower Limit Value {BasedOnField A4}
  ,                                       ! Upper Limit Value {BasedOnField A4}
  Continuous,                             ! Numeric Type
  ActivityLevel;                          ! Unit Type

OS:Schedule:Ruleset,
  {1d7d6003-81a3-4db0-b5a5-1a90601c4a26}, ! Handle
  Medium Office Lighting Schedule,        ! Name
  {386865b0-ec4c-4281-9185-48236f08f7ac}, ! Schedule Type Limits Name
  {feefc73a-d3f0-48a2-8c3e-b40787cf015b}, ! Default Day Schedule Name
  {cea29130-78f3-4b5c-b5cc-d7d11e4b1d42}, ! Summer Design Day Schedule Name
  {a8ebe7d5-d72f-4596-8b99-0619ebf8e302}; ! Winter Design Day Schedule Name

OS:Schedule:Day,
  {feefc73a-d3f0-48a2-8c3e-b40787cf015b}, ! Handle
  Medium Office Lighting All Other Days Schedule, ! Name
  {386865b0-ec4c-4281-9185-48236f08f7ac}, ! Schedule Type Limits Name
  ,                                       ! Interpolate to Timestep
  24,                                     ! Hour 1
  0,                                      ! Minute 1
  0.05;                                   ! Value Until Time 1

OS:Schedule:Day,
  {4b0313eb-c477-4ab1-bbab-39b8ad670940}, ! Handle
  Medium Office Lighting Summer Design Day Schedule, ! Name
  ,                                       ! Schedule Type Limits Name
  ,                                       ! Interpolate to Timestep
  6,                                      ! Hour 1
  0,                                      ! Minute 1
  1,                                      ! Value Until Time 1
  24,                                     ! Hour 2
  0,                                      ! Minute 2
  0;                                      ! Value Until Time 2

OS:Schedule:Day,
  {cea29130-78f3-4b5c-b5cc-d7d11e4b1d42}, ! Handle
  Medium Office Lighting Summer Design Day Schedule 1, ! Name
  {386865b0-ec4c-4281-9185-48236f08f7ac}, ! Schedule Type Limits Name
  ,                                       ! Interpolate to Timestep
  6,                                      ! Hour 1
  0,                                      ! Minute 1
  1,                                      ! Value Until Time 1
  24,                                     ! Hour 2
  0,                                      ! Minute 2
  0;                                      ! Value Until Time 2

OS:Schedule:Day,
  {5c9bc0d9-45ce-4824-a7d8-f362e1d5ab69}, ! Handle
  Medium Office Lighting Winter Design Day Schedule, ! Name
  ,                                       ! Schedule Type Limits Name
  ,                                       ! Interpolate to Timestep
  24,                                     ! Hour 1
  0,                                      ! Minute 1
  0;                                      ! Value Until Time 1

OS:Schedule:Day,
  {a8ebe7d5-d72f-4596-8b99-0619ebf8e302}, ! Handle
  Medium Office Lighting Winter Design Day Schedule 1, ! Name
  {386865b0-ec4c-4281-9185-48236f08f7ac}, ! Schedule Type Limits Name
  ,                                       ! Interpolate to Timestep
  24,                                     ! Hour 1
  0,                                      ! Minute 1
  0;                                      ! Value Until Time 1

OS:Schedule:Rule,
  {ce3b4f8e-6a67-4165-b125-8332eb9a8642}, ! Handle
  Medium Office Lighting Schedule Weekdays Rule, ! Name
  {1d7d6003-81a3-4db0-b5a5-1a90601c4a26}, ! Schedule Ruleset Name
  1,                                      ! Rule Order
  {b1966c40-5a39-4001-80df-b0d5a4eb8a12}, ! Day Schedule Name
  ,                                       ! Apply Sunday
  Yes,                                    ! Apply Monday
  Yes,                                    ! Apply Tuesday
  Yes,                                    ! Apply Wednesday
  Yes,                                    ! Apply Thursday
  Yes;                                    ! Apply Friday

OS:Schedule:Day,
  {b1966c40-5a39-4001-80df-b0d5a4eb8a12}, ! Handle
  Medium Office Lighting Weekdays Schedule, ! Name
  {386865b0-ec4c-4281-9185-48236f08f7ac}, ! Schedule Type Limits Name
  ,                                       ! Interpolate to Timestep
  5,                                      ! Hour 1
  0,                                      ! Minute 1
  0.05,                                   ! Value Until Time 1
  7,                                      ! Hour 2
  0,                                      ! Minute 2
  0.1,                                    ! Value Until Time 2
  8,                                      ! Hour 3
  0,                                      ! Minute 3
  0.3,                                    ! Value Until Time 3
  17,                                     ! Hour 4
  0,                                      ! Minute 4
  0.9,                                    ! Value Until Time 4
  18,                                     ! Hour 5
  0,                                      ! Minute 5
  0.7,                                    ! Value Until Time 5
  20,                                     ! Hour 6
  0,                                      ! Minute 6
  0.5,                                    ! Value Until Time 6
  22,                                     ! Hour 7
  0,                                      ! Minute 7
  0.3,                                    ! Value Until Time 7
  23,                                     ! Hour 8
  0,                                      ! Minute 8
  0.1,                                    ! Value Until Time 8
  24,                                     ! Hour 9
  0,                                      ! Minute 9
  0.05;                                   ! Value Until Time 9

OS:Schedule:Rule,
  {05a2fabe-1165-4ffd-9fd6-961e994befac}, ! Handle
  Medium Office Lighting Schedule Saturday Rule, ! Name
  {1d7d6003-81a3-4db0-b5a5-1a90601c4a26}, ! Schedule Ruleset Name
  0,                                      ! Rule Order
  {7121869e-301e-4c97-bfa0-ff6a8dffa9aa}, ! Day Schedule Name
  ,                                       ! Apply Sunday
  ,                                       ! Apply Monday
  ,                                       ! Apply Tuesday
  ,                                       ! Apply Wednesday
  ,                                       ! Apply Thursday
  ,                                       ! Apply Friday
  Yes;                                    ! Apply Saturday

OS:Schedule:Day,
  {7121869e-301e-4c97-bfa0-ff6a8dffa9aa}, ! Handle
  Medium Office Lighting Saturday Schedule, ! Name
  {386865b0-ec4c-4281-9185-48236f08f7ac}, ! Schedule Type Limits Name
  ,                                       ! Interpolate to Timestep
  6,                                      ! Hour 1
  0,                                      ! Minute 1
  0.05,                                   ! Value Until Time 1
  8,                                      ! Hour 2
  0,                                      ! Minute 2
  0.1,                                    ! Value Until Time 2
  14,                                     ! Hour 3
  0,                                      ! Minute 3
  0.5,                                    ! Value Until Time 3
  17,                                     ! Hour 4
  0,                                      ! Minute 4
  0.15,                                   ! Value Until Time 4
  24,                                     ! Hour 5
  0,                                      ! Minute 5
  0.05;                                   ! Value Until Time 5

OS:Schedule:Ruleset,
  {25529016-1f02-4158-9565-bbb860a48a6f}, ! Handle
  Medium Office Electric Equipment Schedule, ! Name
  {386865b0-ec4c-4281-9185-48236f08f7ac}, ! Schedule Type Limits Name
  {a6cf95c8-27b3-4917-a485-2a327e463099}, ! Default Day Schedule Name
  {f6f44ff0-866c-4f52-934c-fa3a8bdcf13b}, ! Summer Design Day Schedule Name
  {89875379-4973-404e-af9c-d60769d39fd3}; ! Winter Design Day Schedule Name

OS:Schedule:Day,
  {a6cf95c8-27b3-4917-a485-2a327e463099}, ! Handle
  Medium Office Electric Equipment All Other Days Schedule, ! Name
  {386865b0-ec4c-4281-9185-48236f08f7ac}, ! Schedule Type Limits Name
  ,                                       ! Interpolate to Timestep
  24,                                     ! Hour 1
  0,                                      ! Minute 1
  0.3;                                    ! Value Until Time 1

OS:Schedule:Day,
  {2b95b84c-3a61-43ac-8e70-b02a6d3db5ea}, ! Handle
  Medium Office Electric Equipment Summer Design Day Schedule, ! Name
  ,                                       ! Schedule Type Limits Name
  ,                                       ! Interpolate to Timestep
  6,                                      ! Hour 1
  0,                                      ! Minute 1
  1,                                      ! Value Until Time 1
  24,                                     ! Hour 2
  0,                                      ! Minute 2
  0;                                      ! Value Until Time 2

OS:Schedule:Day,
  {f6f44ff0-866c-4f52-934c-fa3a8bdcf13b}, ! Handle
  Medium Office Electric Equipment Summer Design Day Schedule 1, ! Name
  {386865b0-ec4c-4281-9185-48236f08f7ac}, ! Schedule Type Limits Name
  ,                                       ! Interpolate to Timestep
  6,                                      ! Hour 1
  0,                                      ! Minute 1
  1,                                      ! Value Until Time 1
  24,                                     ! Hour 2
  0,                                      ! Minute 2
  0;                                      ! Value Until Time 2

OS:Schedule:Day,
  {9b50c9bf-f665-4ee2-b94a-000cca89c568}, ! Handle
  Medium Office Electric Equipment Winter Design Day Schedule, ! Name
  ,                                       ! Schedule Type Limits Name
  ,                                       ! Interpolate to Timestep
  24,                                     ! Hour 1
  0,                                      ! Minute 1
  0;                                      ! Value Until Time 1

OS:Schedule:Day,
  {89875379-4973-404e-af9c-d60769d39fd3}, ! Handle
  Medium Office Electric Equipment Winter Design Day Schedule 1, ! Name
  {386865b0-ec4c-4281-9185-48236f08f7ac}, ! Schedule Type Limits Name
  ,                                       ! Interpolate to Timestep
  24,                                     ! Hour 1
  0,                                      ! Minute 1
  0;                                      ! Value Until Time 1

OS:Schedule:Rule,
  {b714928d-9895-4d6e-a982-65f46db0701f}, ! Handle
  Medium Office Electric Equipment Schedule Weekdays Rule, ! Name
  {25529016-1f02-4158-9565-bbb860a48a6f}, ! Schedule Ruleset Name
  1,                                      ! Rule Order
  {cf25c926-a6ee-4c34-9857-c7b2086eb5aa}, ! Day Schedule Name
  ,                                       ! Apply Sunday
  Yes,                                    ! Apply Monday
  Yes,                                    ! Apply Tuesday
  Yes,                                    ! Apply Wednesday
  Yes,                                    ! Apply Thursday
  Yes;                                    ! Apply Friday

OS:Schedule:Day,
  {cf25c926-a6ee-4c34-9857-c7b2086eb5aa}, ! Handle
  Medium Office Electric Equipment Weekdays Schedule, ! Name
  {386865b0-ec4c-4281-9185-48236f08f7ac}, ! Schedule Type Limits Name
  ,                                       ! Interpolate to Timestep
  8,                                      ! Hour 1
  0,                                      ! Minute 1
  0.4,                                    ! Value Until Time 1
  12,                                     ! Hour 2
  0,                                      ! Minute 2
  0.9,                                    ! Value Until Time 2
  13,                                     ! Hour 3
  0,                                      ! Minute 3
  0.8,                                    ! Value Until Time 3
  17,                                     ! Hour 4
  0,                                      ! Minute 4
  0.9,                                    ! Value Until Time 4
  18,                                     ! Hour 5
  0,                                      ! Minute 5
  0.8,                                    ! Value Until Time 5
  20,                                     ! Hour 6
  0,                                      ! Minute 6
  0.6,                                    ! Value Until Time 6
  22,                                     ! Hour 7
  0,                                      ! Minute 7
  0.5,                                    ! Value Until Time 7
  24,                                     ! Hour 8
  0,                                      ! Minute 8
  0.4;                                    ! Value Until Time 8

OS:Schedule:Rule,
  {be2601d5-7d04-4a6b-984c-3258cab7ee70}, ! Handle
  Medium Office Electric Equipment Schedule Saturday Rule, ! Name
  {25529016-1f02-4158-9565-bbb860a48a6f}, ! Schedule Ruleset Name
  0,                                      ! Rule Order
  {5171700f-9ace-4468-8a52-d4e63c6c6277}, ! Day Schedule Name
  ,                                       ! Apply Sunday
  ,                                       ! Apply Monday
  ,                                       ! Apply Tuesday
  ,                                       ! Apply Wednesday
  ,                                       ! Apply Thursday
  ,                                       ! Apply Friday
  Yes;                                    ! Apply Saturday

OS:Schedule:Day,
  {5171700f-9ace-4468-8a52-d4e63c6c6277}, ! Handle
  Medium Office Electric Equipment Saturday Schedule, ! Name
  {386865b0-ec4c-4281-9185-48236f08f7ac}, ! Schedule Type Limits Name
  ,                                       ! Interpolate to Timestep