
OS:Version,
  {98346390-1956-4fa0-8a8d-cb9ac9a02554}, !- Handle
  3.7.0;                                  !- Version Identifier

OS:Coil:Heating:Electric,
  {5554a6a4-542a-45a9-bfe8-378c4bf02a89}, !- Handle
  Coil Heating Electric 1,                !- Name
  {74171654-b173-4a5c-be6b-0a24c16395ce}, !- Availability Schedule Name
  ,                                       !- Efficiency
  ,                                       !- Nominal Capacity {W}
  ,                                       !- Air Inlet Node Name
  ;                                       !- Air Outlet Node Name

OS:Schedule:Constant,
  {74171654-b173-4a5c-be6b-0a24c16395ce}, !- Handle
  Always On Discrete,                     !- Name
  {9aa984ca-6761-4f30-95ca-60fbff585b99}, !- Schedule Type Limits Name
  1;                                      !- Value

OS:ScheduleTypeLimits,
  {9aa984ca-6761-4f30-95ca-60fbff585b99}, !- Handle
  OnOff,                                  !- Name
  0,                                      !- Lower Limit Value
  1,                                      !- Upper Limit Value
  Discrete,                               !- Numeric Type
  Availability;                           !- Unit Type

OS:Coil:Cooling:DX:SingleSpeed,
  {789d2160-c986-4f94-873a-6befce6e9492}, !- Handle
  Coil Cooling DX Single Speed 1,         !- Name
  {74171654-b173-4a5c-be6b-0a24c16395ce}, !- Availability Schedule Name
  autosize,                               !- Rated Total Cooling Capacity {W}
  autosize,                               !- Rated Sensible Heat Ratio
  3,                                      !- Rated COP {W/W}
  autosize,                               !- Rated Air Flow Rate {m3/s}
  773.3,                                  !- Rated Evaporator Fan Power Per Volume Flow Rate 2017 {W/(m3/s)}
  934.4,                                  !- Rated Evaporator Fan Power Per Volume Flow Rate 2023 {W/(m3/s)}
  ,                                       !- Air Inlet Node Name
  ,                                       !- Air Outlet Node Name
  {beab1d92-6cb9-4de7-bdc4-fa806fe72e1f}, !- Total Cooling Capacity Function of Temperature Curve Name
  {259723bb-e2ee-4eb1-a439-0355488403b1}, !- Total Cooling Capacity Function of Flow Fraction Curve Name
  {3a1392a2-8c09-4b09-9a88-acc31c602d63}, !- Energy Input Ratio Function of Temperature Curve Name
  {1d023757-5ecd-4eb3-8e65-ab0daf0930ce}, !- Energy Input Ratio Function of Flow Fraction Curve Name
  {158937fb-b342-4572-9ab7-b7af42891ef9}, !- Part Load Fraction Correlation Curve Name
  -25,                                    !- Minimum Outdoor Dry-Bulb Temperature for Compressor Operation {C}
  0,                                      !- Nominal Time for Condensate Removal to Begin {s}
  0,                                      !- Ratio of Initial Moisture Evaporation Rate and Steady State Latent Capacity {dimensionless}
  0,                                      !- Maximum Cycling Rate {cycles/hr}
  0,                                      !- Latent Capacity Time Constant {s}
  ,                                       !- Condenser Air Inlet Node Name
  AirCooled,                              !- Condenser Type
  0.9,                                    !- Evaporative Condenser Effectiveness {dimensionless}
  autosize,                               !- Evaporative Condenser Air Flow Rate {m3/s}
  autosize,                               !- Evaporative Condenser Pump Rated Power Consumption {W}
  0,                                      !- Crankcase Heater Capacity {W}
  ,                                       !- Crankcase Heater Capacity Function of Temperature Curve Name
  10,                                     !- Maximum Outdoor Dry-Bulb Temperature for Crankcase Heater Operation {C}
  ,                                       !- Supply Water Storage Tank Name
  ,                                       !- Condensate Collection Water Storage Tank Name
  0,                                      !- Basin Heater Capacity {W/K}
  2;                                      !- Basin Heater Setpoint Temperature {C}

OS:Curve:Biquadratic,
  {beab1d92-6cb9-4de7-bdc4-fa806fe72e1f}, !- Handle
  Curve Biquadratic 1,                    !- Name
  0.942587793,                            !- Coefficient1 Constant
  0.009543347,                            !- Coefficient2 x
  0.00068377,                             !- Coefficient3 x**2
  -0.011042676,                           !- Coefficient4 y
  5.249e-06,                              !- Coefficient5 y**2
  -9.72e-06,                              !- Coefficient6 x*y
  17,                                     !- Minimum Value of x
  22,                                     !- Maximum Value of x
  13,                                     !- Minimum Value of y
  46;                                     !- Maximum Value of y

OS:Curve:Quadratic,
  {259723bb-e2ee-4eb1-a439-0355488403b1}, !- Handle
  Curve Quadratic 1,                      !- Name
  0.8,                                    !- Coefficient1 Constant
  0.2,                                    !- Coefficient2 x
  0,                                      !- Coefficient3 x**2
  0.5,                                    !- Minimum Value of x
  1.5;                                    !- Maximum Value of x

OS:Curve:Biquadratic,
  {3a1392a2-8c09-4b09-9a88-acc31c602d63}, !- Handle
  Curve Biquadratic 2,                    !- Name
  0.342414409,                            !- Coefficient1 Constant
  0.034885008,                            !- Coefficient2 x
  -0.0006237,                             !- Coefficient3 x**2
  0.004977216,                            !- Coefficient4 y
  0.000437951,                            !- Coefficient5 y**2
  -0.000728028,                           !- Coefficient6 x*y
  17,                                     !- Minimum Value of x
  22,                                     !- Maximum Value of x
  13,                                     !- Minimum Value of y
  46;                                     !- Maximum Value of y

OS:Curve:Quadratic,
  {1d023757-5ecd-4eb3-8e65-ab0daf0930ce}, !- Handle
  Curve Quadratic 2,                      !- Name
  1.1552,                                 !- Coefficient1 Constant
  -0.1808,                                !- Coefficient2 x
  0.0256,                                 !- Coefficient3 x**2
  0.5,                                    !- Minimum Value of x
  1.5;                                    !- Maximum Value of x

OS:Curve:Quadratic,
  {158937fb-b342-4572-9ab7-b7af42891ef9}, !- Handle
  Curve Quadratic 3,                      !- Name
  0.85,                                   !- Coefficient1 Constant
  0.15,                                   !- Coefficient2 x
  0,                                      !- Coefficient3 x**2
  0,                                      !- Minimum Value of x
  1;                                      !- Maximum Value of x

OS:Fan:ConstantVolume,
  {aa3c0732-a48a-47f0-8050-5d18a82fc502}, !- Handle
  Fan Constant Volume 1,                  !- Name
  {74171654-b173-4a5c-be6b-0a24c16395ce}, !- Availability Schedule Name
  ,                                       !- Fan Total Efficiency
  ,                                       !- Pressure Rise {Pa}
  AutoSize,                               !- Maximum Flow Rate {m3/s}
  ,                                       !- Motor Efficiency
  ,                                       !- Motor In Airstream Fraction
  ,                                       !- Air Inlet Node Name
  ,                                       !- Air Outlet Node Name
  ;                                       !- End-Use Subcategory

OS:ZoneHVAC:PackagedTerminalAirConditioner,
  {0c3d297e-4df4-44b5-a21d-8ee9e2bc3358}, !- Handle
  Zone HVAC Packaged Terminal Air Conditioner 1, !- Name
  {74171654-b173-4a5c-be6b-0a24c16395ce}, !- Availability Schedule Name
  ,                                       !- Air Inlet Node Name
  ,                                       !- Air Outlet Node Name
  OutdoorAir:Mixer,                       !- Outdoor Air Mixer Object Type
  ,                                       !- Outdoor Air Mixer Name
  Autosize,                               !- Supply Air Flow Rate During Cooling Operation {m3/s}
  Autosize,                               !- Supply Air Flow Rate During Heating Operation {m3/s}
  Autosize,                               !- Supply Air Flow Rate When No Cooling or Heating is Needed {m3/s}
  Autosize,                               !- Outdoor Air Flow Rate During Cooling Operation {m3/s}
  Autosize,                               !- Outdoor Air Flow Rate During Heating Operation {m3/s}
  Autosize,                               !- Outdoor Air Flow Rate When No Cooling or Heating is Needed {m3/s}
  {aa3c0732-a48a-47f0-8050-5d18a82fc502}, !- Supply Air Fan Name
  {5554a6a4-542a-45a9-bfe8-378c4bf02a89}, !- Heating Coil Name
  {789d2160-c986-4f94-873a-6befce6e9492}, !- Cooling Coil Name
  DrawThrough,                            !- Fan Placement
  {74171654-b173-4a5c-be6b-0a24c16395ce}; !- Supply Air Fan Operating Mode Schedule Name

