
OS:Version,
  {5a8dca7f-9180-4865-acc0-eac9963d8ef3}, !- Handle
  3.7.0;                                  !- Version Identifier

OS:HeatExchanger:AirToAir:SensibleAndLatent,
  {e04c7943-5596-465d-878a-0db9f84f6c93}, !- Handle
  Heat Exchanger Air To Air Sensible And Latent 1, !- Name
  {47eea206-1ff3-4b61-88b1-7bc9ead8760a}, !- Availability Schedule
  autosize,                               !- Nominal Supply Air Flow Rate {m3/s}
  0.76,                                   !- Sensible Effectiveness at 100% Heating Air Flow {dimensionless}
  0.68,                                   !- Latent Effectiveness at 100% Heating Air Flow {dimensionless}
  0.81,                                   !- Sensible Effectiveness at 75% Heating Air Flow {dimensionless}
  0.73,                                   !- Latent Effectiveness at 75% Heating Air Flow {dimensionless}
  0.76,                                   !- Sensible Effectiveness at 100% Cooling Air Flow {dimensionless}
  0.68,                                   !- Latent Effectiveness at 100% Cooling Air Flow {dimensionless}
  0.81,                                   !- Sensible Effectiveness at 75% Cooling Air Flow {dimensionless}
  0.73,                                   !- Latent Effectiveness at 75% Cooling Air Flow {dimensionless}
  ,                                       !- Supply Air Inlet Node
  ,                                       !- Supply Air Outlet Node
  ,                                       !- Exhaust Air Inlet Node
  ,                                       !- Exhaust Air Outlet Node
  0,                                      !- Nominal Electric Power {W}
  Yes,                                    !- Supply Air Outlet Temperature Control
  Plate,                                  !- Heat Exchanger Type
  None,                                   !- Frost Control Type
  1.7,                                    !- Threshold Temperature {C}
  ,                                       !- Initial Defrost Time Fraction {dimensionless}
  ,                                       !- Rate of Defrost Time Fraction Increase {1/K}
  Yes;                                    !- Economizer Lockout

OS:Schedule:Constant,
  {47eea206-1ff3-4b61-88b1-7bc9ead8760a}, !- Handle
  Always On Discrete,                     !- Name
  {f1aa0f40-39f0-4ad4-a148-2ca756a8d74f}, !- Schedule Type Limits Name
  1;                                      !- Value

OS:ScheduleTypeLimits,
  {f1aa0f40-39f0-4ad4-a148-2ca756a8d74f}, !- Handle
  OnOff,                                  !- Name
  0,                                      !- Lower Limit Value
  1,                                      !- Upper Limit Value
  Discrete,                               !- Numeric Type
  Availability;                           !- Unit Type

