
OS:Version,
  {a82039c5-2e82-4d88-a98d-e3313c28318c}, !- Handle
  1.10.4;                                 !- Version Identifier

OS:Construction,
  {dd94827f-5610-489d-865b-807ae93be559}, !- Handle
  Interior Floor,                         !- Name
  ,                                       !- Surface Rendering Name
  {31bdf325-f37f-4b65-9035-6013ef7adfc7}, !- Layer 1
  {d1748c7a-9b38-43d3-a28d-2ebb450b49fc}, !- Layer 2
  {7c472c58-cc72-4aa6-b445-851293dba6ee}; !- Layer 3

OS:Material,
  {31bdf325-f37f-4b65-9035-6013ef7adfc7}, !- Handle
  F16 Acoustic tile,                      !- Name
  MediumSmooth,                           !- Roughness
  0.0191,                                 !- Thickness {m}
  0.06,                                   !- Conductivity {W/m-K}
  368,                                    !- Density {kg/m3}
  590;                                    !- Specific Heat {J/kg-K}

OS:Material:AirGap,
  {d1748c7a-9b38-43d3-a28d-2ebb450b49fc}, !- Handle
  F05 Ceiling air space resistance,       !- Name
  0.18;                                   !- Thermal Resistance {m2-K/W}

OS:Material,
  {7c472c58-cc72-4aa6-b445-851293dba6ee}, !- Handle
  M11 100mm lightweight concrete,         !- Name
  MediumRough,                            !- Roughness
  0.1016,                                 !- Thickness {m}
  0.53,                                   !- Conductivity {W/m-K}
  1280,                                   !- Density {kg/m3}
  840;                                    !- Specific Heat {J/kg-K}

OS:ComponentData,
  {a7ef6782-916d-4a90-b431-ac716fea31f8}, !- Handle
  Component Data 1,                       !- Name
  {3a9af5e1-b520-4972-a6e5-9e8312842b33}, !- UUID
  {552f8870-2356-40ec-b2b0-f04e4fd36630}, !- Version UUID
  1456170152,                             !- Creation Timestamp
  1456170152,                             !- Version Timestamp
  {dd94827f-5610-489d-865b-807ae93be559}, !- Name of Object 1
  {31bdf325-f37f-4b65-9035-6013ef7adfc7}, !- Name of Object 2
  {d1748c7a-9b38-43d3-a28d-2ebb450b49fc}, !- Name of Object 3
  {7c472c58-cc72-4aa6-b445-851293dba6ee}; !- Name of Object 4

