
OS:Version,
  {fb1b6d47-ecf2-43e4-8267-6509d7ce9f85}, !- Handle
  0.10.5;                                 !- Version Identifier

OS:SimulationControl,
  {bbcc3a61-a66f-4d58-9a5f-847e607271ed}, !- Handle
  Yes,                                    !- Do Zone Sizing Calculation
  Yes,                                    !- Do System Sizing Calculation
  ,                                       !- Do Plant Sizing Calculation
  No,                                     !- Run Simulation for Sizing Periods
  Yes;                                    !- Run Simulation for Weather File Run Periods

OS:Timestep,
  {b4ff18ea-ee31-4384-9cbf-cd322ef6974e}, !- Handle
  6;                                      !- Number of Timesteps per Hour

OS:RunPeriod,
  {d0158db6-c892-42d2-98e8-70643b91e340}, !- Handle
  Run Period 1,                           !- Name
  1,                                      !- Begin Month
  1,                                      !- Begin Day of Month
  12,                                     !- End Month
  31,                                     !- End Day of Month
  No,                                     !- Use Weather File Holidays and Special Days
  No,                                     !- Use Weather File Daylight Saving Period
  No,                                     !- Apply Weekend Holiday Rule
  Yes,                                    !- Use Weather File Rain Indicators
  Yes,                                    !- Use Weather File Snow Indicators
  1;                                      !- Number of Times Runperiod to be Repeated

OS:SurfaceConvectionAlgorithm:Inside,
  {1f859f76-4891-4c33-bb9c-2da9bbcf0193}, !- Handle
  TARP;                                   !- Algorithm

OS:SurfaceConvectionAlgorithm:Outside,
  {54ed774f-637d-4625-bf97-8f6b41263147}, !- Handle
  DOE-2;                                  !- Algorithm

OS:HeatBalanceAlgorithm,
  {803f0dff-2bf6-484c-997c-01bfb8bbfb83}, !- Handle
  ConductionTransferFunction,             !- Algorithm
  200;                                    !- Surface Temperature Upper Limit {F}

OS:ZoneAirHeatBalanceAlgorithm,
  {284c5469-188c-4bd5-9cd7-677c87271e56}, !- Handle
  AnalyticalSolution;                     !- Algorithm

OS:ConvergenceLimits,
  {a14ace7a-037e-4ca3-b801-461d46b1b603}; !- Handle

OS:ShadowCalculation,
  {0cf55216-107a-4f4d-9067-399d54e4ccb7}, !- Handle
  7,                                      !- Calculation Frequency
  15000;                                  !- Maximum Figures in Shadow Overlap Calculations

OS:Site,
  {260cf0e2-f29c-40b7-b424-b52a5e37665b}, !- Handle
  Site 1,                                 !- Name
  41.77,                                  !- Latitude {deg}
  -87.75,                                 !- Longitude {deg}
  -6,                                     !- Time Zone {hr}
  190,                                    !- Elevation {m}
  ;                                       !- Terrain

OS:Site:GroundTemperature:BuildingSurface,
  {06af9554-3d67-48fc-a51d-2e0df03386b1}, !- Handle
  19.527,                                 !- January Ground Temperature {C}
  19.502,                                 !- February Ground Temperature {C}
  19.536,                                 !- March Ground Temperature {C}
  19.598,                                 !- April Ground Temperature {C}
  20.002,                                 !- May Ground Temperature {C}
  21.64,                                  !- June Ground Temperature {C}
  22.225,                                 !- July Ground Temperature {C}
  22.375,                                 !- August Ground Temperature {C}
  21.449,                                 !- September Ground Temperature {C}
  20.121,                                 !- October Ground Temperature {C}
  19.802,                                 !- November Ground Temperature {C}
  19.633;                                 !- December Ground Temperature {C}

OS:Site:WaterMainsTemperature,
  {36657655-03e2-459b-b6e5-3d444219b87b}, !- Handle
  Correlation,                            !- Calculation Method
  ,                                       !- Temperature Schedule Name
  9.69,                                   !- Annual Average Outdoor Air Temperature {C}
  28.1;                                   !- Maximum Difference In Monthly Average Outdoor Air Temperatures {deltaC}

OS:SizingPeriod:DesignDay,
  {dc045f05-c3f9-4cea-9f18-3520981da82a}, !- Handle
  Sizing Period Design Day 1,             !- Name
  -20.6,                                  !- Maximum Dry-Bulb Temperature {C}
  0,                                      !- Daily Dry-Bulb Temperature Range {deltaC}
  -20.6,                                  !- Humidity Indicating Conditions at Maximum Dry-Bulb {BasedOnField A3}
  99063,                                  !- Barometric Pressure {Pa}
  4.9,                                    !- Wind Speed {m/s}
  270,                                    !- Wind Direction {deg}
  0,                                      !- Sky Clearness
  0,                                      !- Rain Indicator
  0,                                      !- Snow Indicator
  21,                                     !- Day of Month
  1,                                      !- Month
  WinterDesignDay,                        !- Day Type
  0,                                      !- Daylight Saving Time Indicator
  WetBulb,                                !- Humidity Indicating Type
  ,                                       !- Humidity Indicating Day Schedule Name
  DefaultMultipliers,                     !- Dry-Bulb Temperature Range Modifier Type
  ,                                       !- Dry-Bulb Temperature Range Modifier Schedule Name
  AshraeClearSky;                         !- Solar Model Indicator

OS:SizingPeriod:DesignDay,
  {cd9e0f38-df5b-4293-8b13-82dab2ad5200}, !- Handle
  Sizing Period Design Day 2,             !- Name
  33.2,                                   !- Maximum Dry-Bulb Temperature {C}
  10.7,                                   !- Daily Dry-Bulb Temperature Range {deltaC}
  23.8,                                   !- Humidity Indicating Conditions at Maximum Dry-Bulb {BasedOnField A3}
  99063,                                  !- Barometric Pressure {Pa}
  5.3,                                    !- Wind Speed {m/s}
  230,                                    !- Wind Direction {deg}
  1,                                      !- Sky Clearness
  0,                                      !- Rain Indicator
  0,                                      !- Snow Indicator
  21,                                     !- Day of Month
  7,                                      !- Month
  SummerDesignDay,                        !- Day Type
  0,                                      !- Daylight Saving Time Indicator
  WetBulb,                                !- Humidity Indicating Type
  ,                                       !- Humidity Indicating Day Schedule Name
  DefaultMultipliers,                     !- Dry-Bulb Temperature Range Modifier Type
  ,                                       !- Dry-Bulb Temperature Range Modifier Schedule Name
  AshraeClearSky;                         !- Solar Model Indicator

OS:ScheduleTypeLimits,
  {82d4a60a-994e-4a1a-9787-9d08b57e044a}, !- Handle
  Temperature,                            !- Name
  -60,                                    !- Lower Limit Value {BasedOnField A4}
  200,                                    !- Upper Limit Value {BasedOnField A4}
  CONTINUOUS,                             !- Numeric Type
  Temperature;                            !- Unit Type

OS:DefaultScheduleSet,
  {bb67179d-b834-4739-9052-8d607c8f439e}, !- Handle
  Default Schedules,                      !- Name
  ,                                       !- Hours of Operation Schedule Name
  {342f31d6-fb88-4afc-9207-37bcfeee3d12}, !- Number of People Schedule Name
  {cd2c9247-494a-44ee-bc87-1583ef5e2f82}, !- People Activity Level Schedule Name
  {5cabd59f-55f5-433a-982c-e9fe03496ee0}, !- Lighting Schedule Name
  {2dde6627-a13b-4a7b-94d7-6a8caa835e52}, !- Electric Equipment Schedule Name
  {3ff0bcad-ba3b-438b-92ee-e93187b4027d}, !- Gas Equipment Schedule Name
  {8fd6df8f-9c65-4f1a-8817-93a4a6623e76}, !- Hot Water Equipment Schedule Name
  {6bed0df7-b2f4-4b3f-840f-8a0fb2d6cef1}, !- Infiltration Schedule Name
  ,                                       !- Steam Equipment Schedule Name
  ;                                       !- Other Equipment Schedule Name

OS:Schedule:Ruleset,
  {342f31d6-fb88-4afc-9207-37bcfeee3d12}, !- Handle
  Medium Office Number of People Schedule, !- Name
  {835c65c1-5e9e-4063-82c9-095de65c2873}, !- Schedule Type Limits Name
  {c1244d1f-047e-44de-8f90-315934808fbc}, !- Default Day Schedule Name
  {3dbe7901-788b-4968-925e-ce144697a137}; !- Summer Design Day Schedule Name

OS:Schedule:Day,
  {c1244d1f-047e-44de-8f90-315934808fbc}, !- Handle
  Medium Office Number of People All Other Days Schedule, !- Name
  {835c65c1-5e9e-4063-82c9-095de65c2873}, !- Schedule Type Limits Name
  ,                                       !- Interpolate to Timestep
  24,                                     !- Hour 1
  0,                                      !- Minute 1
  0;                                      !- Value Until Time 1

OS:Schedule:Day,
  {c0896b8d-3f9f-4681-b59f-548422c191d7}, !- Handle
  Medium Office Number of People Summer Design Day Schedule, !- Name
  ,                                       !- Schedule Type Limits Name
  ,                                       !- Interpolate to Timestep
  6,                                      !- Hour 1
  0,                                      !- Minute 1
  0,                                      !- Value Until Time 1
  22,                                     !- Hour 2
  0,                                      !- Minute 2
  1,                                      !- Value Until Time 2
  24,                                     !- Hour 3
  0,                                      !- Minute 3
  0.05;                                   !- Value Until Time 3

OS:Schedule:Day,
  {3dbe7901-788b-4968-925e-ce144697a137}, !- Handle
  Medium Office Number of People Summer Design Day Schedule 1, !- Name
  {835c65c1-5e9e-4063-82c9-095de65c2873}, !- Schedule Type Limits Name
  ,                                       !- Interpolate to Timestep
  6,                                      !- Hour 1
  0,                                      !- Minute 1
  0,                                      !- Value Until Time 1
  22,                                     !- Hour 2
  0,                                      !- Minute 2
  1,                                      !- Value Until Time 2
  24,                                     !- Hour 3
  0,                                      !- Minute 3
  0.05;                                   !- Value Until Time 3

OS:Schedule:Rule,
  {9523e6c3-bfb8-4186-bffb-cb12c9cbb0cb}, !- Handle
  Medium Office Number of People Schedule Weekdays Rule, !- Name
  {342f31d6-fb88-4afc-9207-37bcfeee3d12}, !- Schedule Ruleset Name
  1,                                      !- Rule Order
  {ff924a20-99d2-4099-9a16-ca38eb26a302}, !- Day Schedule Name
  ,                                       !- Apply Sunday
  Yes,                                    !- Apply Monday
  Yes,                                    !- Apply Tuesday
  Yes,                                    !- Apply Wednesday
  Yes,                                    !- Apply Thursday
  Yes;                                    !- Apply Friday

OS:Schedule:Day,
  {ff924a20-99d2-4099-9a16-ca38eb26a302}, !- Handle
  Medium Office Number of People Weekdays Schedule, !- Name
  {835c65c1-5e9e-4063-82c9-095de65c2873}, !- Schedule Type Limits Name
  ,                                       !- Interpolate to Timestep
  6,                                      !- Hour 1
  0,                                      !- Minute 1
  0,                                      !- Value Until Time 1
  7,                                      !- Hour 2
  0,                                      !- Minute 2
  0.1,                                    !- Value Until Time 2
  8,                                      !- Hour 3
  0,                                      !- Minute 3
  0.2,                                    !- Value Until Time 3
  12,                                     !- Hour 4
  0,                                      !- Minute 4
  0.95,                                   !- Value Until Time 4
  13,                                     !- Hour 5
  0,                                      !- Minute 5
  0.5,                                    !- Value Until Time 5
  17,                                     !- Hour 6
  0,                                      !- Minute 6
  0.95,                                   !- Value Until Time 6
  18,                                     !- Hour 7
  0,                                      !- Minute 7
  0.7,                                    !- Value Until Time 7
  20,                                     !- Hour 8
  0,                                      !- Minute 8
  0.4,                                    !- Value Until Time 8
  22,                                     !- Hour 9
  0,                                      !- Minute 9
  0.1,                                    !- Value Until Time 9
  24,                                     !- Hour 10
  0,                                      !- Minute 10
  0.05;                                   !- Value Until Time 10

OS:Schedule:Rule,
  {f6c2a29c-a0d5-4b8f-986e-63063c3674ff}, !- Handle
  Medium Office Number of People Schedule Saturday Rule, !- Name
  {342f31d6-fb88-4afc-9207-37bcfeee3d12}, !- Schedule Ruleset Name
  0,                                      !- Rule Order
  {341f2797-a829-4f66-96a5-9bc3c53e10dd}, !- Day Schedule Name
  ,                                       !- Apply Sunday
  ,                                       !- Apply Monday
  ,                                       !- Apply Tuesday
  ,                                       !- Apply Wednesday
  ,                                       !- Apply Thursday
  ,                                       !- Apply Friday
  Yes;                                    !- Apply Saturday

OS:Schedule:Day,
  {341f2797-a829-4f66-96a5-9bc3c53e10dd}, !- Handle
  Medium Office Number of People Saturday Schedule, !- Name
  {835c65c1-5e9e-4063-82c9-095de65c2873}, !- Schedule Type Limits Name
  ,                                       !- Interpolate to Timestep
  6,                                      !- Hour 1
  0,                                      !- Minute 1
  0,                                      !- Value Until Time 1
  8,                                      !- Hour 2
  0,                                      !- Minute 2
  0.1,                                    !- Value Until Time 2
  14,                                     !- Hour 3
  0,                                      !- Minute 3
  0.5,                                    !- Value Until Time 3
  17,                                     !- Hour 4
  0,                                      !- Minute 4
  0.1,                                    !- Value Until Time 4
  24,                                     !- Hour 5
  0,                                      !- Minute 5
  0;                                      !- Value Until Time 5

OS:ScheduleTypeLimits,
  {835c65c1-5e9e-4063-82c9-095de65c2873}, !- Handle
  Fractional,                             !- Name
  0,                                      !- Lower Limit Value {BasedOnField A4}
  1,                                      !- Upper Limit Value {BasedOnField A4}
  Continuous;                             !- Numeric Type

OS:Schedule:Ruleset,
  {cd2c9247-494a-44ee-bc87-1583ef5e2f82}, !- Handle
  Medium Office People Activity Level Schedule, !- Name
  {ff7c1a18-ed42-4819-8219-d591c4e5a41e}, !- Schedule Type Limits Name
  {e8783f6a-645f-4da7-9c7c-f50a926bc271}; !- Default Day Schedule Name

OS:Schedule:Day,
  {e8783f6a-645f-4da7-9c7c-f50a926bc271}, !- Handle
  Medium Office People Activity Level All Days Schedule, !- Name
  {ff7c1a18-ed42-4819-8219-d591c4e5a41e}, !- Schedule Type Limits Name
  ,                                       !- Interpolate to Timestep
  24,                                     !- Hour 1
  0,                                      !- Minute 1
  120;                                    !- Value Until Time 1

OS:ScheduleTypeLimits,
  {ff7c1a18-ed42-4819-8219-d591c4e5a41e}, !- Handle
  ActivityLevel,                          !- Name
  0,                                      !- Lower Limit Value {BasedOnField A4}
  ,                                       !- Upper Limit Value {BasedOnField A4}
  Continuous,                             !- Numeric Type
  ActivityLevel;                          !- Unit Type

OS:Schedule:Ruleset,
  {5cabd59f-55f5-433a-982c-e9fe03496ee0}, !- Handle
  Medium Office Lighting Schedule,        !- Name
  {835c65c1-5e9e-4063-82c9-095de65c2873}, !- Schedule Type Limits Name
  {d46e69d7-293b-469a-847f-79f26eae5504}, !- Default Day Schedule Name
  {2b431fb3-a8e9-4026-b04e-f1e2bbbf4dda}, !- Summer Design Day Schedule Name
  {ea588a48-363c-4c06-8a4a-304de16e0f0e}; !- Winter Design Day Schedule Name

OS:Schedule:Day,
  {d46e69d7-293b-469a-847f-79f26eae5504}, !- Handle
  Medium Office Lighting All Other Days Schedule, !- Name
  {835c65c1-5e9e-4063-82c9-095de65c2873}, !- Schedule Type Limits Name
  ,                                       !- Interpolate to Timestep
  24,                                     !- Hour 1
  0,                                      !- Minute 1
  0.05;                                   !- Value Until Time 1

OS:Schedule:Day,
  {a672d223-311d-423f-b169-ca34edfe764b}, !- Handle
  Medium Office Lighting Summer Design Day Schedule, !- Name
  ,                                       !- Schedule Type Limits Name
  ,                                       !- Interpolate to Timestep
  6,                                      !- Hour 1
  0,                                      !- Minute 1
  1,                                      !- Value Until Time 1
  24,                                     !- Hour 2
  0,                                      !- Minute 2
  0;                                      !- Value Until Time 2

OS:Schedule:Day,
  {2b431fb3-a8e9-4026-b04e-f1e2bbbf4dda}, !- Handle
  Medium Office Lighting Summer Design Day Schedule 1, !- Name
  {835c65c1-5e9e-4063-82c9-095de65c2873}, !- Schedule Type Limits Name
  ,                                       !- Interpolate to Timestep
  6,                                      !- Hour 1
  0,                                      !- Minute 1
  1,                                      !- Value Until Time 1
  24,                                     !- Hour 2
  0,                                      !- Minute 2
  0;                                      !- Value Until Time 2

OS:Schedule:Day,
  {4e6e69fb-155e-4b5f-921e-9872283fe70b}, !- Handle
  Medium Office Lighting Winter Design Day Schedule, !- Name
  ,                                       !- Schedule Type Limits Name
  ,                                       !- Interpolate to Timestep
  24,                                     !- Hour 1
  0,                                      !- Minute 1
  0;                                      !- Value Until Time 1

OS:Schedule:Day,
  {ea588a48-363c-4c06-8a4a-304de16e0f0e}, !- Handle
  Medium Office Lighting Winter Design Day Schedule 1, !- Name
  {835c65c1-5e9e-4063-82c9-095de65c2873}, !- Schedule Type Limits Name
  ,                                       !- Interpolate to Timestep
  24,                                     !- Hour 1
  0,                                      !- Minute 1
  0;                                      !- Value Until Time 1

OS:Schedule:Rule,
  {7bfd4987-2aba-4307-9a99-6e4a8d8f5ac2}, !- Handle
  Medium Office Lighting Schedule Weekdays Rule, !- Name
  {5cabd59f-55f5-433a-982c-e9fe03496ee0}, !- Schedule Ruleset Name
  1,                                      !- Rule Order
  {dc0a47be-bc53-4bbf-8139-1703e9ea4edf}, !- Day Schedule Name
  ,                                       !- Apply Sunday
  Yes,                                    !- Apply Monday
  Yes,                                    !- Apply Tuesday
  Yes,                                    !- Apply Wednesday
  Yes,                                    !- Apply Thursday
  Yes;                                    !- Apply Friday

OS:Schedule:Day,
  {dc0a47be-bc53-4bbf-8139-1703e9ea4edf}, !- Handle
  Medium Office Lighting Weekdays Schedule, !- Name
  {835c65c1-5e9e-4063-82c9-095de65c2873}, !- Schedule Type Limits Name
  ,                                       !- Interpolate to Timestep
  5,                                      !- Hour 1
  0,                                      !- Minute 1
  0.05,                                   !- Value Until Time 1
  7,                                      !- Hour 2
  0,                                      !- Minute 2
  0.1,                                    !- Value Until Time 2
  8,                                      !- Hour 3
  0,                                      !- Minute 3
  0.3,                                    !- Value Until Time 3
  17,                                     !- Hour 4
  0,                                      !- Minute 4
  0.9,                                    !- Value Until Time 4
  18,                                     !- Hour 5
  0,                                      !- Minute 5
  0.7,                                    !- Value Until Time 5
  20,                                     !- Hour 6
  0,                                      !- Minute 6
  0.5,                                    !- Value Until Time 6
  22,                                     !- Hour 7
  0,                                      !- Minute 7
  0.3,                                    !- Value Until Time 7
  23,                                     !- Hour 8
  0,                                      !- Minute 8
  0.1,                                    !- Value Until Time 8
  24,                                     !- Hour 9
  0,                                      !- Minute 9
  0.05;                                   !- Value Until Time 9

OS:Schedule:Rule,
  {0f666777-9558-412d-8469-5ef8d88d092e}, !- Handle
  Medium Office Lighting Schedule Saturday Rule, !- Name
  {5cabd59f-55f5-433a-982c-e9fe03496ee0}, !- Schedule Ruleset Name
  0,                                      !- Rule Order
  {f215028d-d6cb-4903-bfcc-f6fb5f438a3e}, !- Day Schedule Name
  ,                                       !- Apply Sunday
  ,                                       !- Apply Monday
  ,                                       !- Apply Tuesday
  ,                                       !- Apply Wednesday
  ,                                       !- Apply Thursday
  ,                                       !- Apply Friday
  Yes;                                    !- Apply Saturday

OS:Schedule:Day,
  {f215028d-d6cb-4903-bfcc-f6fb5f438a3e}, !- Handle
  Medium Office Lighting Saturday Schedule, !- Name
  {835c65c1-5e9e-4063-82c9-095de65c2873}, !- Schedule Type Limits Name
  ,                                       !- Interpolate to Timestep
  6,                                      !- Hour 1
  0,                                      !- Minute 1
  0.05,                                   !- Value Until Time 1
  8,                                      !- Hour 2
  0,                                      !- Minute 2
  0.1,                                    !- Value Until Time 2
  14,                                     !- Hour 3
  0,                                      !- Minute 3
  0.5,                                    !- Value Until Time 3
  17,                                     !- Hour 4
  0,                                      !- Minute 4
  0.15,                                   !- Value Until Time 4
  24,                                     !- Hour 5
  0,                                      !- Minute 5
  0.05;                                   !- Value Until Time 5

OS:Schedule:Ruleset,
  {2dde6627-a13b-4a7b-94d7-6a8caa835e52}, !- Handle
  Medium Office Electric Equipment Schedule, !- Name
  {835c65c1-5e9e-4063-82c9-095de65c2873}, !- Schedule Type Limits Name
  {957557a7-c958-469d-b864-552f3dd7e0df}, !- Default Day Schedule Name
  {9ac3e953-2e62-414e-a0cc-fa5232d8309b}, !- Summer Design Day Schedule Name
  {45ae9b7c-33dc-482a-91a7-8e48c0dc60c0}; !- Winter Design Day Schedule Name

OS:Schedule:Day,
  {957557a7-c958-469d-b864-552f3dd7e0df}, !- Handle
  Medium Office Electric Equipment All Other Days Schedule, !- Name
  {835c65c1-5e9e-4063-82c9-095de65c2873}, !- Schedule Type Limits Name
  ,                                       !- Interpolate to Timestep
  24,                                     !- Hour 1
  0,                                      !- Minute 1
  0.3;                                    !- Value Until Time 1

OS:Schedule:Day,
  {3a1e08b6-d17a-4c88-b308-6f89eab57a6b}, !- Handle
  Medium Office Electric Equipment Summer Design Day Schedule, !- Name
  ,                                       !- Schedule Type Limits Name
  ,                                       !- Interpolate to Timestep
  6,                                      !- Hour 1
  0,                                      !- Minute 1
  1,                                      !- Value Until Time 1
  24,                                     !- Hour 2
  0,                                      !- Minute 2
  0;                                      !- Value Until Time 2

OS:Schedule:Day,
  {9ac3e953-2e62-414e-a0cc-fa5232d8309b}, !- Handle
  Medium Office Electric Equipment Summer Design Day Schedule 1, !- Name
  {835c65c1-5e9e-4063-82c9-095de65c2873}, !- Schedule Type Limits Name
  ,                                       !- Interpolate to Timestep
  6,                                      !- Hour 1
  0,                                      !- Minute 1
  1,                                      !- Value Until Time 1
  24,                                     !- Hour 2
  0,                                      !- Minute 2
  0;                                      !- Value Until Time 2

OS:Schedule:Day,
  {1da9b6fd-09ee-46be-8409-ff28e911c655}, !- Handle
  Medium Office Electric Equipment Winter Design Day Schedule, !- Name
  ,                                       !- Schedule Type Limits Name
  ,                                       !- Interpolate to Timestep
  24,                                     !- Hour 1
  0,                                      !- Minute 1
  0;                                      !- Value Until Time 1

OS:Schedule:Day,
  {45ae9b7c-33dc-482a-91a7-8e48c0dc60c0}, !- Handle
  Medium Office Electric Equipment Winter Design Day Schedule 1, !- Name
  {835c65c1-5e9e-4063-82c9-095de65c2873}, !- Schedule Type Limits Name
  ,                                       !- Interpolate to Timestep
  24,                                     !- Hour 1
  0,                                      !- Minute 1
  0;                                      !- Value Until Time 1

OS:Schedule:Rule,
  {5b7a9f45-3b69-4239-a36b-1544097c7d3b}, !- Handle
  Medium Office Electric Equipment Schedule Weekdays Rule, !- Name
  {2dde6627-a13b-4a7b-94d7-6a8caa835e52}, !- Schedule Ruleset Name
  1,                                      !- Rule Order
  {275d3ec8-9c44-4dcb-b28e-9d8814ca0b47}, !- Day Schedule Name
  ,                                       !- Apply Sunday
  Yes,                                    !- Apply Monday
  Yes,                                    !- Apply Tuesday
  Yes,                                    !- Apply Wednesday
  Yes,                                    !- Apply Thursday
  Yes;                                    !- Apply Friday

OS:Schedule:Day,
  {275d3ec8-9c44-4dcb-b28e-9d8814ca0b47}, !- Handle
  Medium Office Electric Equipment Weekdays Schedule, !- Name
  {835c65c1-5e9e-4063-82c9-095de65c2873}, !- Schedule Type Limits Name
  ,                                       !- Interpolate to Timestep
  8,                                      !- Hour 1
  0,                                      !- Minute 1
  0.4,                                    !- Value Until Time 1
  12,                                     !- Hour 2
  0,                                      !- Minute 2
  0.9,                                    !- Value Until Time 2
  13,                                     !- Hour 3
  0,                                      !- Minute 3
  0.8,                                    !- Value Until Time 3
  17,                                     !- Hour 4
  0,                                      !- Minute 4
  0.9,                                    !- Value Until Time 4
  18,                                     !- Hour 5
  0,                                      !- Minute 5
  0.8,                                    !- Value Until Time 5
  20,                                     !- Hour 6
  0,                                      !- Minute 6
  0.6,                                    !- Value Until Time 6
  22,                                     !- Hour 7
  0,                                      !- Minute 7
  0.5,                                    !- Value Until Time 7
  24,                                     !- Hour 8
  0,                                      !- Minute 8
  0.4;                                    !- Value Until Time 8

OS:Schedule:Rule,
  {544f9a70-12bd-47b9-bb7f-334760912537}, !- Handle
  Medium Office Electric Equipment Schedule Saturday Rule, !- Name
  {2dde6627-a13b-4a7b-94d7-6a8caa835e52}, !- Schedule Ruleset Name
  0,                                      !- Rule Order
  {e79ae39e-6593-4a31-ac85-7c8fb986d8ec}, !- Day Schedule Name
  ,                                       !- Apply Sunday
  ,                                       !- Apply Monday
  ,                                       !- Apply Tuesday
  ,                                       !- Apply Wednesday