
OS:Version,
  {bda686f0-40d4-424c-86ed-777b6f6a5d91}, !- Handle
  1.12.0;                                 !- Version Identifier

OS:SimulationControl,
  {e5404d27-ef7e-4d3c-8f27-aa8d71c48e44}, !- Handle
  Yes,                                    !- Do Zone Sizing Calculation
  Yes,                                    !- Do System Sizing Calculation
  ,                                       !- Do Plant Sizing Calculation
  No,                                     !- Run Simulation for Sizing Periods
  Yes;                                    !- Run Simulation for Weather File Run Periods

OS:Timestep,
  {c80691fb-5b08-4feb-816d-bd5ebbefcacd}, !- Handle
  6;                                      !- Number of Timesteps per Hour

OS:RunPeriod,
  {d89584ce-8fdd-474c-878d-2dc03745da50}, !- Handle
  Run Period 1,                           !- Name
  1,                                      !- Begin Month
  1,                                      !- Begin Day of Month
  12,                                     !- End Month
  31,                                     !- End Day of Month
  No,                                     !- Use Weather File Holidays and Special Days
  No,                                     !- Use Weather File Daylight Saving Period
  No,                                     !- Apply Weekend Holiday Rule
  Yes,                                    !- Use Weather File Rain Indicators
  Yes,                                    !- Use Weather File Snow Indicators
  1;                                      !- Number of Times Runperiod to be Repeated

OS:SurfaceConvectionAlgorithm:Inside,
  {cb7786c0-fa5f-46f9-a5eb-a0cd2898d3bb}, !- Handle
  TARP;                                   !- Algorithm

OS:SurfaceConvectionAlgorithm:Outside,
  {71a33a4d-3d55-4853-8d55-77aa1249244b}, !- Handle
  DOE-2;                                  !- Algorithm

OS:HeatBalanceAlgorithm,
  {8bb1c083-2ce0-4375-8a6c-f7c2cc13a869}, !- Handle
  ConductionTransferFunction,             !- Algorithm
  200;                                    !- Surface Temperature Upper Limit {C}

OS:ZoneAirHeatBalanceAlgorithm,
  {10eab2ff-5c6b-4521-983d-9763356639d1}, !- Handle
  ThirdOrderBackwardDifference;           !- Algorithm

OS:ConvergenceLimits,
  {52aab950-431c-44f1-850c-c5b059f83b7d}, !- Handle
  1;                                      !- Minimum System Timestep {minutes}

OS:ShadowCalculation,
  {5166c02a-8874-4f0d-a1b1-7239ad490ea9}, !- Handle
  20,                                     !- Calculation Frequency
  15000;                                  !- Maximum Figures in Shadow Overlap Calculations

OS:Site,
  {f4811818-41c0-4137-bdd3-b1f8ba629f01}, !- Handle
  Site 1,                                 !- Name
  41.77,                                  !- Latitude {deg}
  -87.75,                                 !- Longitude {deg}
  -6,                                     !- Time Zone {hr}
  190,                                    !- Elevation {m}
  ;                                       !- Terrain

OS:Site:GroundTemperature:BuildingSurface,
  {5e3672e9-01d5-4a09-885f-802bd13004fd}, !- Handle
  19.527,                                 !- January Ground Temperature {C}
  19.502,                                 !- February Ground Temperature {C}
  19.536,                                 !- March Ground Temperature {C}
  19.598,                                 !- April Ground Temperature {C}
  20.002,                                 !- May Ground Temperature {C}
  21.64,                                  !- June Ground Temperature {C}
  22.225,                                 !- July Ground Temperature {C}
  22.375,                                 !- August Ground Temperature {C}
  21.449,                                 !- September Ground Temperature {C}
  20.121,                                 !- October Ground Temperature {C}
  19.802,                                 !- November Ground Temperature {C}
  19.633;                                 !- December Ground Temperature {C}

OS:Site:GroundTemperature:Deep,
  {dc1dbd3f-8cf6-4a06-a830-5ef27acd5c04}, !- Handle
  19.527,                                 !- January Deep Ground Temperature {C}
  19.502,                                 !- February Deep Ground Temperature {C}
  19.536,                                 !- March Deep Ground Temperature {C}
  19.598,                                 !- April Deep Ground Temperature {C}
  20.002,                                 !- May Deep Ground Temperature {C}
  21.64,                                  !- June Deep Ground Temperature {C}
  22.225,                                 !- July Deep Ground Temperature {C}
  22.375,                                 !- August Deep Ground Temperature {C}
  21.449,                                 !- September Deep Ground Temperature {C}
  20.121,                                 !- October Deep Ground Temperature {C}
  19.802,                                 !- November Deep Ground Temperature {C}
  19.633;                                 !- December Deep Ground Temperature {C}

OS:Site:WaterMainsTemperature,
  {3d00c920-fe20-454c-bde2-6a32a0fd4f2e}, !- Handle
  Correlation,                            !- Calculation Method
  ,                                       !- Temperature Schedule Name
  9.69,                                   !- Annual Average Outdoor Air Temperature {C}
  28.1;                                   !- Maximum Difference In Monthly Average Outdoor Air Temperatures {deltaC}

OS:SizingPeriod:DesignDay,
  {a59eb2d2-53d6-4292-a52f-d8d0c0331eb6}, !- Handle
  Sizing Period Design Day 1,             !- Name
  -20.6,                                  !- Maximum Dry-Bulb Temperature {C}
  0,                                      !- Daily Dry-Bulb Temperature Range {deltaC}
  -20.6,                                  !- Humidity Indicating Conditions at Maximum Dry-Bulb
  99063,                                  !- Barometric Pressure {Pa}
  4.9,                                    !- Wind Speed {m/s}
  270,                                    !- Wind Direction {deg}
  0,                                      !- Sky Clearness
  0,                                      !- Rain Indicator
  0,                                      !- Snow Indicator
  21,                                     !- Day of Month
  1,                                      !- Month
  WinterDesignDay,                        !- Day Type
  0,                                      !- Daylight Saving Time Indicator
  WetBulb,                                !- Humidity Indicating Type
  ,                                       !- Humidity Indicating Day Schedule Name
  DefaultMultipliers,                     !- Dry-Bulb Temperature Range Modifier Type
  ,                                       !- Dry-Bulb Temperature Range Modifier Schedule Name
  AshraeClearSky;                         !- Solar Model Indicator

OS:SizingPeriod:DesignDay,
  {cd3619bd-aad1-463c-bafb-e78edeb49b4d}, !- Handle
  Sizing Period Design Day 2,             !- Name
  33.2,                                   !- Maximum Dry-Bulb Temperature {C}
  10.7,                                   !- Daily Dry-Bulb Temperature Range {deltaC}
  23.8,                                   !- Humidity Indicating Conditions at Maximum Dry-Bulb
  99063,                                  !- Barometric Pressure {Pa}
  5.3,                                    !- Wind Speed {m/s}
  230,                                    !- Wind Direction {deg}
  1,                                      !- Sky Clearness
  0,                                      !- Rain Indicator
  0,                                      !- Snow Indicator
  21,                                     !- Day of Month
  7,                                      !- Month
  SummerDesignDay,                        !- Day Type
  0,                                      !- Daylight Saving Time Indicator
  WetBulb,                                !- Humidity Indicating Type
  ,                                       !- Humidity Indicating Day Schedule Name
  DefaultMultipliers,                     !- Dry-Bulb Temperature Range Modifier Type
  ,                                       !- Dry-Bulb Temperature Range Modifier Schedule Name
  AshraeClearSky;                         !- Solar Model Indicator

OS:ScheduleTypeLimits,
  {c2f0b62a-0987-472d-9025-263258bf8c5b}, !- Handle
  Temperature,                            !- Name
  -60,                                    !- Lower Limit Value
  200,                                    !- Upper Limit Value
  CONTINUOUS,                             !- Numeric Type
  Temperature;                            !- Unit Type

OS:DefaultScheduleSet,
  {9a1c7585-24d0-4086-9bcf-34b87e6d4d35}, !- Handle
  Default Schedules,                      !- Name
  ,                                       !- Hours of Operation Schedule Name
  {3f20fc6c-3236-4223-9720-86def5af52d3}, !- Number of People Schedule Name
  {7ce2cb35-910c-418b-82eb-bf89ac61a0a4}, !- People Activity Level Schedule Name
  {1d9c614a-8ccd-4960-aec7-bebef980218f}, !- Lighting Schedule Name
  {f169b673-44cb-4228-a6d6-264517183bd2}, !- Electric Equipment Schedule Name
  {38e69269-b5db-4d8f-bee4-4b0d724b3624}, !- Gas Equipment Schedule Name
  {b0ec215c-a1c1-4aad-9b3a-2cf9db670d16}, !- Hot Water Equipment Schedule Name
  {fa2d0d5a-2198-4710-bc3f-fd5b71d94bcd}, !- Infiltration Schedule Name
  ,                                       !- Steam Equipment Schedule Name
  ;                                       !- Other Equipment Schedule Name

OS:Schedule:Ruleset,
  {3f20fc6c-3236-4223-9720-86def5af52d3}, !- Handle
  Medium Office Number of People Schedule, !- Name
  {7b5bac2d-a73a-4c7b-a0b7-06843dbdad02}, !- Schedule Type Limits Name
  {bd11c668-4820-4bd9-b899-43394975a479}, !- Default Day Schedule Name
  {c54ff77a-08f3-4644-b5c0-663f85b4e8c0}; !- Summer Design Day Schedule Name

OS:Schedule:Day,
  {bd11c668-4820-4bd9-b899-43394975a479}, !- Handle
  Medium Office Number of People All Other Days Schedule, !- Name
  {7b5bac2d-a73a-4c7b-a0b7-06843dbdad02}, !- Schedule Type Limits Name
  ,                                       !- Interpolate to Timestep
  24,                                     !- Hour 1
  0,                                      !- Minute 1
  0;                                      !- Value Until Time 1

OS:Schedule:Day,
  {2238777d-453b-44b9-b22b-817e7b41024b}, !- Handle
  Medium Office Number of People Summer Design Day Schedule, !- Name
  ,                                       !- Schedule Type Limits Name
  ,                                       !- Interpolate to Timestep
  6,                                      !- Hour 1
  0,                                      !- Minute 1
  0,                                      !- Value Until Time 1
  22,                                     !- Hour 2
  0,                                      !- Minute 2
  1,                                      !- Value Until Time 2
  24,                                     !- Hour 3
  0,                                      !- Minute 3
  0.05;                                   !- Value Until Time 3

OS:Schedule:Day,
  {c54ff77a-08f3-4644-b5c0-663f85b4e8c0}, !- Handle
  Medium Office Number of People Summer Design Day Schedule 1, !- Name
  {7b5bac2d-a73a-4c7b-a0b7-06843dbdad02}, !- Schedule Type Limits Name
  ,                                       !- Interpolate to Timestep
  6,                                      !- Hour 1
  0,                                      !- Minute 1
  0,                                      !- Value Until Time 1
  22,                                     !- Hour 2
  0,                                      !- Minute 2
  1,                                      !- Value Until Time 2
  24,                                     !- Hour 3
  0,                                      !- Minute 3
  0.05;                                   !- Value Until Time 3

OS:Schedule:Rule,
  {2dc7c8b7-343c-4fff-b861-5637b3f0a494}, !- Handle
  Medium Office Number of People Schedule Weekdays Rule, !- Name
  {3f20fc6c-3236-4223-9720-86def5af52d3}, !- Schedule Ruleset Name
  1,                                      !- Rule Order
  {2e5be7dc-d23d-49ab-9bc4-aab5ad89973d}, !- Day Schedule Name
  ,                                       !- Apply Sunday
  Yes,                                    !- Apply Monday
  Yes,                                    !- Apply Tuesday
  Yes,                                    !- Apply Wednesday
  Yes,                                    !- Apply Thursday
  Yes;                                    !- Apply Friday

OS:Schedule:Day,
  {2e5be7dc-d23d-49ab-9bc4-aab5ad89973d}, !- Handle
  Medium Office Number of People Weekdays Schedule, !- Name
  {7b5bac2d-a73a-4c7b-a0b7-06843dbdad02}, !- Schedule Type Limits Name
  ,                                       !- Interpolate to Timestep
  6,                                      !- Hour 1
  0,                                      !- Minute 1
  0,                                      !- Value Until Time 1
  7,                                      !- Hour 2
  0,                                      !- Minute 2
  0.1,                                    !- Value Until Time 2
  8,                                      !- Hour 3
  0,                                      !- Minute 3
  0.2,                                    !- Value Until Time 3
  12,                                     !- Hour 4
  0,                                      !- Minute 4
  0.95,                                   !- Value Until Time 4
  13,                                     !- Hour 5
  0,                                      !- Minute 5
  0.5,                                    !- Value Until Time 5
  17,                                     !- Hour 6
  0,                                      !- Minute 6
  0.95,                                   !- Value Until Time 6
  18,                                     !- Hour 7
  0,                                      !- Minute 7
  0.7,                                    !- Value Until Time 7
  20,                                     !- Hour 8
  0,                                      !- Minute 8
  0.4,                                    !- Value Until Time 8
  22,                                     !- Hour 9
  0,                                      !- Minute 9
  0.1,                                    !- Value Until Time 9
  24,                                     !- Hour 10
  0,                                      !- Minute 10
  0.05;                                   !- Value Until Time 10

OS:Schedule:Rule,
  {a6f5f327-09e2-4325-9f61-28f4690272ee}, !- Handle
  Medium Office Number of People Schedule Saturday Rule, !- Name
  {3f20fc6c-3236-4223-9720-86def5af52d3}, !- Schedule Ruleset Name
  0,                                      !- Rule Order
  {7357457f-054e-4596-a68c-e1b43fe2b229}, !- Day Schedule Name
  ,                                       !- Apply Sunday
  ,                                       !- Apply Monday
  ,                                       !- Apply Tuesday
  ,                                       !- Apply Wednesday
  ,                                       !- Apply Thursday
  ,                                       !- Apply Friday
  Yes;                                    !- Apply Saturday

OS:Schedule:Day,
  {7357457f-054e-4596-a68c-e1b43fe2b229}, !- Handle
  Medium Office Number of People Saturday Schedule, !- Name
  {7b5bac2d-a73a-4c7b-a0b7-06843dbdad02}, !- Schedule Type Limits Name
  ,                                       !- Interpolate to Timestep
  6,                                      !- Hour 1
  0,                                      !- Minute 1
  0,                                      !- Value Until Time 1
  8,                                      !- Hour 2
  0,                                      !- Minute 2
  0.1,                                    !- Value Until Time 2
  14,                                     !- Hour 3
  0,                                      !- Minute 3
  0.5,                                    !- Value Until Time 3
  17,                                     !- Hour 4
  0,                                      !- Minute 4
  0.1,                                    !- Value Until Time 4
  24,                                     !- Hour 5
  0,                                      !- Minute 5
  0;                                      !- Value Until Time 5

OS:ScheduleTypeLimits,
  {7b5bac2d-a73a-4c7b-a0b7-06843dbdad02}, !- Handle
  Fractional,                             !- Name
  0,                                      !- Lower Limit Value
  1,                                      !- Upper Limit Value
  Continuous;                             !- Numeric Type

OS:Schedule:Ruleset,
  {7ce2cb35-910c-418b-82eb-bf89ac61a0a4}, !- Handle
  Medium Office People Activity Level Schedule, !- Name
  {6891372f-12af-4c53-b453-e83edfcd5647}, !- Schedule Type Limits Name
  {c7ea6fe2-4aaa-428a-8f52-8fa53df9c794}; !- Default Day Schedule Name

OS:Schedule:Day,
  {c7ea6fe2-4aaa-428a-8f52-8fa53df9c794}, !- Handle
  Medium Office People Activity Level All Days Schedule, !- Name
  {6891372f-12af-4c53-b453-e83edfcd5647}, !- Schedule Type Limits Name
  ,                                       !- Interpolate to Timestep
  24,                                     !- Hour 1
  0,                                      !- Minute 1
  120;                                    !- Value Until Time 1

OS:ScheduleTypeLimits,
  {6891372f-12af-4c53-b453-e83edfcd5647}, !- Handle
  ActivityLevel,                          !- Name
  0,                                      !- Lower Limit Value
  ,                                       !- Upper Limit Value
  Continuous,                             !- Numeric Type
  ActivityLevel;                          !- Unit Type

OS:Schedule:Ruleset,
  {1d9c614a-8ccd-4960-aec7-bebef980218f}, !- Handle
  Medium Office Lighting Schedule,        !- Name
  {7b5bac2d-a73a-4c7b-a0b7-06843dbdad02}, !- Schedule Type Limits Name
  {46d014b6-a07d-40aa-bab0-9d9b29e5afea}, !- Default Day Schedule Name
  {051f657b-3a29-402f-bd1a-bc5a9cc15522}, !- Summer Design Day Schedule Name
  {9b14b16c-ab57-4188-a37b-ccf38c0a7d98}; !- Winter Design Day Schedule Name

OS:Schedule:Day,
  {46d014b6-a07d-40aa-bab0-9d9b29e5afea}, !- Handle
  Medium Office Lighting All Other Days Schedule, !- Name
  {7b5bac2d-a73a-4c7b-a0b7-06843dbdad02}, !- Schedule Type Limits Name
  ,                                       !- Interpolate to Timestep
  24,                                     !- Hour 1
  0,                                      !- Minute 1
  0.05;                                   !- Value Until Time 1

OS:Schedule:Day,
  {eb632327-7173-4f26-8224-a55bcfebcfca}, !- Handle
  Medium Office Lighting Summer Design Day Schedule, !- Name
  ,                                       !- Schedule Type Limits Name
  ,                                       !- Interpolate to Timestep
  6,                                      !- Hour 1
  0,                                      !- Minute 1
  1,                                      !- Value Until Time 1
  24,                                     !- Hour 2
  0,                                      !- Minute 2
  0;                                      !- Value Until Time 2

OS:Schedule:Day,
  {051f657b-3a29-402f-bd1a-bc5a9cc15522}, !- Handle
  Medium Office Lighting Summer Design Day Schedule 1, !- Name
  {7b5bac2d-a73a-4c7b-a0b7-06843dbdad02}, !- Schedule Type Limits Name
  ,                                       !- Interpolate to Timestep
  6,                                      !- Hour 1
  0,                                      !- Minute 1
  1,                                      !- Value Until Time 1
  24,                                     !- Hour 2
  0,                                      !- Minute 2
  0;                                      !- Value Until Time 2

OS:Schedule:Day,
  {d91b1107-e357-4bc2-a1ca-4c5c34266a66}, !- Handle
  Medium Office Lighting Winter Design Day Schedule, !- Name
  ,                                       !- Schedule Type Limits Name
  ,                                       !- Interpolate to Timestep
  24,                                     !- Hour 1
  0,                                      !- Minute 1
  0;                                      !- Value Until Time 1

OS:Schedule:Day,
  {9b14b16c-ab57-4188-a37b-ccf38c0a7d98}, !- Handle
  Medium Office Lighting Winter Design Day Schedule 1, !- Name
  {7b5bac2d-a73a-4c7b-a0b7-06843dbdad02}, !- Schedule Type Limits Name
  ,                                       !- Interpolate to Timestep
  24,                                     !- Hour 1
  0,                                      !- Minute 1
  0;                                      !- Value Until Time 1

OS:Schedule:Rule,
  {4ad6c609-c1d1-4f2a-b942-5847f724e3cb}, !- Handle
  Medium Office Lighting Schedule Weekdays Rule, !- Name
  {1d9c614a-8ccd-4960-aec7-bebef980218f}, !- Schedule Ruleset Name
  1,                                      !- Rule Order
  {ed8a65aa-0221-4ce6-a90d-94e04bafe902}, !- Day Schedule Name
  ,                                       !- Apply Sunday
  Yes,                                    !- Apply Monday
  Yes,                                    !- Apply Tuesday
  Yes,                                    !- Apply Wednesday
  Yes,                                    !- Apply Thursday
  Yes;                                    !- Apply Friday

OS:Schedule:Day,
  {ed8a65aa-0221-4ce6-a90d-94e04bafe902}, !- Handle
  Medium Office Lighting Weekdays Schedule, !- Name
  {7b5bac2d-a73a-4c7b-a0b7-06843dbdad02}, !- Schedule Type Limits Name
  ,                                       !- Interpolate to Timestep
  5,                                      !- Hour 1
  0,                                      !- Minute 1
  0.05,                                   !- Value Until Time 1
  7,                                      !- Hour 2
  0,                                      !- Minute 2
  0.1,                                    !- Value Until Time 2
  8,                                      !- Hour 3
  0,                                      !- Minute 3
  0.3,                                    !- Value Until Time 3
  17,                                     !- Hour 4
  0,                                      !- Minute 4
  0.9,                                    !- Value Until Time 4
  18,                                     !- Hour 5
  0,                                      !- Minute 5
  0.7,                                    !- Value Until Time 5
  20,                                     !- Hour 6
  0,                                      !- Minute 6
  0.5,                                    !- Value Until Time 6
  22,                                     !- Hour 7
  0,                                      !- Minute 7
  0.3,                                    !- Value Until Time 7
  23,                                     !- Hour 8
  0,                                      !- Minute 8
  0.1,                                    !- Value Until Time 8
  24,                                     !- Hour 9
  0,                                      !- Minute 9
  0.05;                                   !- Value Until Time 9

OS:Schedule:Rule,
  {8bb3e1d9-9700-4a96-99ce-162629f0fd22}, !- Handle
  Medium Office Lighting Schedule Saturday Rule, !- Name
  {1d9c614a-8ccd-4960-aec7-bebef980218f}, !- Schedule Ruleset Name
  0,                                      !- Rule Order
  {ebba9de2-0bdd-4e3c-97a8-9eed11254ae4}, !- Day Schedule Name
  ,                                       !- Apply Sunday
  ,                                       !- Apply Monday
  ,                                       !- Apply Tuesday
  ,                                       !- Apply Wednesday
  ,                                       !- Apply Thursday
  ,                                       !- Apply Friday
  Yes;                                    !- Apply Saturday

OS:Schedule:Day,
  {ebba9de2-0bdd-4e3c-97a8-9eed11254ae4}, !- Handle
  Medium Office Lighting Saturday Schedule, !- Name
  {7b5bac2d-a73a-4c7b-a0b7-06843dbdad02}, !- Schedule Type Limits Name
  ,                                       !- Interpolate to Timestep
  6,                                      !- Hour 1
  0,                                      !- Minute 1
  0.05,                                   !- Value Until Time 1
  8,                                      !- Hour 2
  0,                                      !- Minute 2
  0.1,                                    !- Value Until Time 2
  14,                                     !- Hour 3
  0,                                      !- Minute 3
  0.5,                                    !- Value Until Time 3
  17,                                     !- Hour 4
  0,                                      !- Minute 4
  0.15,                                   !- Value Until Time 4
  24,                                     !- Hour 5
  0,                                      !- Minute 5
  0.05;                                   !- Value Until Time 5

OS:Schedule:Ruleset,
  {f169b673-44cb-4228-a6d6-264517183bd2}, !- Handle
  Medium Office Electric Equipment Schedule, !- Name
  {7b5bac2d-a73a-4c7b-a0b7-06843dbdad02}, !- Schedule Type Limits Name
  {97624b98-7ff2-466d-a3b1-4b9df79e6b39}, !- Default Day Schedule Name
  {f9a5c4aa-0ba3-456e-88dd-0bd8ae96b69c}, !- Summer Design Day Schedule Name
  {04f6828a-9842-4d9f-99bb-896eeac52db2}; !- Winter Design Day Schedule Name

OS:Schedule:Day,
  {97624b98-7ff2-466d-a3b1-4b9df79e6b39}, !- Handle
  Medium Office Electric Equipment All Other Days Schedule, !- Name
  {7b5bac2d-a73a-4c7b-a0b7-06843dbdad02}, !- Schedule Type Limits Name
  ,                                       !- Interpolate to Timestep
  24,                                     !- Hour 1
  0,                                      !- Minute 1
  0.3;                                    !- Value Until Time 1

OS:Schedule:Day,
  {35196dd3-6fb5-457f-92c0-92a1d8fd75fd}, !- Handle
  Medium Office Electric Equipment Summer Design Day Schedule, !- Name
  ,                                       !- Schedule Type Limits Name
  ,                                       !- Interpolate to Timestep
  6,                                      !- Hour 1
  0,                                      !- Minute 1
  1,                                      !- Value Until Time 1
  24,                                     !- Hour 2
  0,                                      !- Minute 2
  0;                                      !- Value Until Time 2

OS:Schedule:Day,
  {f9a5c4aa-0ba3-456e-88dd-0bd8ae96b69c}, !- Handle
  Medium Office Electric Equipment Summer Design Day Schedule 1, !- Name
  {7b5bac2d-a73a-4c7b-a0b7-06843dbdad02}, !- Schedule Type Limits Name
  ,                                       !- Interpolate to Timestep
  6,                                      !- Hour 1
  0,                                      !- Minute 1
  1,                                      !- Value Until Time 1
  24,                                     !- Hour 2
  0,                                      !- Minute 2
  0;                                      !- Value Until Time 2

OS:Schedule:Day,
  {74b88ad8-7594-48e2-8a5a-6ab9ccc11f93}, !- Handle
  Medium Office Electric Equipment Winter Design Day Schedule, !- Name
  ,                                       !- Schedule Type Limits Name
  ,                                       !- Interpolate to Timestep
  24,                                     !- Hour 1
  0,                                      !- Minute 1
  0;                                      !- Value Until Time 1

OS:Schedule:Day,
  {04f6828a-9842-4d9f-99bb-896eeac52db2}, !- Handle
  Medium Office Electric Equipment Winter Design Day Schedule 1, !- Name
  {7b5bac2d-a73a-4c7b-a0b7-06843dbdad02}, !- Schedule Type Limits Name
  ,                                       !- Interpolate to Timestep
  24,                                     !- Hour 1
  0,                                      !- Minute 1
  0;                                      !- Value Until Time 1

OS:Schedule:Rule,
  {37dee0be-e247-4b65-a66f-6fc67772daf2}, !- Handle
  Medium Office Electric Equipment Schedule Weekdays Rule, !- Name
  {f169b673-44cb-4228-a6d6-264517183bd2}, !- Schedule Ruleset Name
  1,                                      !- Rule Order
  {9b3d93e2-29bf-4de1-8f6a-73eab8ea424d}, !- Day Schedule Name
  ,                                       !- Apply Sunday
  Yes,                                    !- Apply Monday
  Yes,                                    !- Apply Tuesday
  Yes,                                    !- Apply Wednesday
  Yes,                                    !- Apply Thursday
  Yes;                                    !- Apply Friday

OS:Schedule:Day,
  {9b3d93e2-29bf-4de1-8f6a-73eab8ea424d}, !- Handle
  Medium Office Electric Equipment Weekdays Schedule, !- Name
  {7b5bac2d-a73a-4c7b-a0b7-06843dbdad02}, !- Schedule Type Limits Name
  ,                                       !- Interpolate to Timestep
  8,                                      !- Hour 1
  0,                                      !- Minute 1
  0.4,                                    !- Value Until Time 1
  12,                                     !- Hour 2
  0,                                      !- Minute 2
  0.9,                                    !- Value Until Time 2
  13,                                     !- Hour 3
  0,                                      !- Minute 3
  0.8,                                    !- Value Until Time 3
  17,                                     !- Hour 4
  0,                                      !- Minute 4
  0.9,                                    !- Value Until Time 4
  18,                                     !- Hour 5
  0,                                      !- Minute 5
  0.8,                                    !- Value Until Time 5
  20,                                     !- Hour 6