
OS:Version,
  {e8a9ff82-96f2-4bdf-a661-d8311d53c8c2},  ! Handle
  0.8.1;                    ! Version Identifier

OS:SimulationControl,
  {156207f2-6f6d-44c2-9de0-99cd1eec7738},  ! Handle
  Yes,                      ! Do Zone Sizing Calculation
  Yes,                      ! Do System Sizing Calculation
  ,                         ! Do Plant Sizing Calculation
  No,                       ! Run Simulation for Sizing Periods
  Yes;                      ! Run Simulation for Weather File Run Periods

OS:Timestep,
  {6a7ca334-7df1-4399-b340-a905c9b2eba0},  ! Handle
  6;                        ! Number of Timesteps per Hour

OS:RunPeriod,
  {51bba7f8-f499-4145-ba5d-71bd13ac7f5b},  ! Handle
  OS:RunPeriod 1,           ! Name
  1,                        ! Begin Month
  1,                        ! Begin Day of Month
  12,                       ! End Month
  31,                       ! End Day of Month
  No,                       ! Use Weather File Holidays and Special Days
  No,                       ! Use Weather File Daylight Saving Period
  No,                       ! Apply Weekend Holiday Rule
  Yes,                      ! Use Weather File Rain Indicators
  Yes,                      ! Use Weather File Snow Indicators
  1;                        ! Number of Times Runperiod to be Repeated

OS:SurfaceConvectionAlgorithm:Inside,
  {0a83cc6a-4893-4276-afd4-ded7b4fc4521},  ! Handle
  TARP;                     ! Algorithm

OS:SurfaceConvectionAlgorithm:Outside,
  {dee4a2a8-e757-4a21-9cae-b3b8b5a4543e},  ! Handle
  DOE-2;                    ! Algorithm

OS:HeatBalanceAlgorithm,
  {ee8729f0-7069-4373-847b-7aeb264fdf60},  ! Handle
  ConductionTransferFunction,  ! Algorithm
  200;                      ! Surface Temperature Upper Limit {F}

OS:ZoneAirHeatBalanceAlgorithm,
  {8987b3c7-1d08-4c43-8578-0ce2d5077da8},  ! Handle
  AnalyticalSolution;       ! Algorithm

OS:ConvergenceLimits,
  {9771a85a-1674-4633-be12-6b8d1f99053d};  ! Handle

OS:ShadowCalculation,
  {f6f545d9-5d24-410c-aee3-8707abe3656d},  ! Handle
  7,                        ! Calculation Frequency
  15000;                    ! Maximum Figures in Shadow Overlap Calculations

OS:Site,
  {e795f1e5-9ce3-4689-945f-f9a12b2f8c4a},  ! Handle
  OS:Site 1,                ! Name
  41.77,                    ! Latitude {deg}
  -87.75,                   ! Longitude {deg}
  -6,                       ! Time Zone {hr}
  190,                      ! Elevation {m}
  ;                         ! Terrain

OS:Site:GroundTemperature:BuildingSurface,
  {7cd4f527-ee37-49d6-8302-fdab7fe082b2},  ! Handle
  19.527,                   ! January Ground Temperature {C}
  19.502,                   ! February Ground Temperature {C}
  19.536,                   ! March Ground Temperature {C}
  19.598,                   ! April Ground Temperature {C}
  20.002,                   ! May Ground Temperature {C}
  21.64,                    ! June Ground Temperature {C}
  22.225,                   ! July Ground Temperature {C}
  22.375,                   ! August Ground Temperature {C}
  21.449,                   ! September Ground Temperature {C}
  20.121,                   ! October Ground Temperature {C}
  19.802,                   ! November Ground Temperature {C}
  19.633;                   ! December Ground Temperature {C}

OS:Site:WaterMainsTemperature,
  {30a7ea8c-d2e4-485c-8523-9553ec33355a},  ! Handle
  Correlation,              ! Calculation Method
  ,                         ! Temperature Schedule Name
  9.69,                     ! Annual Average Outdoor Air Temperature {C}
  28.1;                     ! Maximum Difference In Monthly Average Outdoor Air Temperatures {deltaC}

OS:SizingPeriod:DesignDay,
  {d961e39f-8318-496e-8812-479be611b53b},  ! Handle
  OS:SizingPeriod:DesignDay 1,  ! Name
  -20.6,                    ! Maximum Dry-Bulb Temperature {C}
  0,                        ! Daily Dry-Bulb Temperature Range {deltaC}
  -20.6,                    ! Humidity Indicating Conditions at Maximum Dry-Bulb {BasedOnField A3}
  99063,                    ! Barometric Pressure {Pa}
  4.9,                      ! Wind Speed {m/s}
  270,                      ! Wind Direction {deg}
  0,                        ! Sky Clearness
  0,                        ! Rain Indicator
  0,                        ! Snow Indicator
  21,                       ! Day of Month
  1,                        ! Month
  WinterDesignDay,          ! Day Type
  0,                        ! Daylight Saving Time Indicator
  WetBulb,                  ! Humidity Indicating Type
  ,                         ! Humidity Indicating Day Schedule Name
  DefaultMultipliers,       ! Dry-Bulb Temperature Range Modifier Type
  ,                         ! Dry-Bulb Temperature Range Modifier Schedule Name
  AshraeClearSky;           ! Solar Model Indicator

OS:SizingPeriod:DesignDay,
  {ae24f932-f234-4490-be09-b868e4448dfd},  ! Handle
  OS:SizingPeriod:DesignDay 2,  ! Name
  33.2,                     ! Maximum Dry-Bulb Temperature {C}
  10.7,                     ! Daily Dry-Bulb Temperature Range {deltaC}
  23.8,                     ! Humidity Indicating Conditions at Maximum Dry-Bulb {BasedOnField A3}
  99063,                    ! Barometric Pressure {Pa}
  5.3,                      ! Wind Speed {m/s}
  230,                      ! Wind Direction {deg}
  1,                        ! Sky Clearness
  0,                        ! Rain Indicator
  0,                        ! Snow Indicator
  21,                       ! Day of Month
  7,                        ! Month
  SummerDesignDay,          ! Day Type
  0,                        ! Daylight Saving Time Indicator
  WetBulb,                  ! Humidity Indicating Type
  ,                         ! Humidity Indicating Day Schedule Name
  DefaultMultipliers,       ! Dry-Bulb Temperature Range Modifier Type
  ,                         ! Dry-Bulb Temperature Range Modifier Schedule Name
  AshraeClearSky;           ! Solar Model Indicator

OS:ScheduleTypeLimits,
  {a08ba9b3-da35-45c7-b405-f60b07a8171c},  ! Handle
  Fraction,                 ! Name
  0,                        ! Lower Limit Value {BasedOnField A3}
  1,                        ! Upper Limit Value {BasedOnField A3}
  CONTINUOUS;               ! Numeric Type

OS:ScheduleTypeLimits,
  {1b5ed0db-3bd2-44d8-9f41-cdbc463b5e11},  ! Handle
  Any Number;               ! Name

OS:ScheduleTypeLimits,
  {690b81d4-b67a-470a-88f6-c1abbf6547f7},  ! Handle
  On/Off,                   ! Name
  0,                        ! Lower Limit Value {BasedOnField A3}
  1,                        ! Upper Limit Value {BasedOnField A3}
  DISCRETE;                 ! Numeric Type

OS:ScheduleTypeLimits,
  {6c778fb5-3fde-4bc4-9d4d-96c6ce4aaf5a},  ! Handle
  Control Type,             ! Name
  0,                        ! Lower Limit Value {BasedOnField A3}
  4,                        ! Upper Limit Value {BasedOnField A3}
  DISCRETE;                 ! Numeric Type

OS:ScheduleTypeLimits,
  {32ab43c5-ee31-49ed-8b0a-3c4f5bf55e66},  ! Handle
  Temperature,              ! Name
  -60,                      ! Lower Limit Value {BasedOnField A3}
  200,                      ! Upper Limit Value {BasedOnField A3}
  CONTINUOUS;               ! Numeric Type

OS:DefaultScheduleSet,
  {5a122e6a-2eb7-4f18-9868-a541bfe3a6cd},  ! Handle
  Default Schedules,        ! Name
  ,                         ! Hours of Operation Schedule Name
  {aa455aba-0ca4-4972-a630-ab515c948989},  ! Number of People Schedule Name
  {5588a4ac-d3f6-4653-83e6-9e102595d6d3},  ! People Activity Level Schedule Name
  {81882c06-affe-48da-9122-515d927eca56},  ! Lighting Schedule Name
  {ae38fd59-1d8f-40cd-a553-6b2ad0c4e6b7},  ! Electric Equipment Schedule Name
  {643290d4-d63a-40a9-a7b3-5a228b11fcad},  ! Gas Equipment Schedule Name
  {ed90e1c8-166f-46ff-9d88-035bcb8adaba},  ! Hot Water Equipment Schedule Name
  {e96dd8af-c64e-47d2-8fa6-104c98fd1672},  ! Infiltration Schedule Name
  ,                         ! Steam Equipment Schedule Name
  ;                         ! Other Equipment Schedule Name

OS:Schedule:Ruleset,
  {aa455aba-0ca4-4972-a630-ab515c948989},  ! Handle
  Medium Office Number of People Schedule,  ! Name
  ,                         ! Schedule Type Limits Name
  {e916e965-b29a-4754-a69e-27144cf440f5},  ! Default Day Schedule Name
  {50fad347-09a7-489d-9282-f620ef956825};  ! Summer Design Day Schedule Name

OS:Schedule:Day,
  {e916e965-b29a-4754-a69e-27144cf440f5},  ! Handle
  Medium Office Number of People All Other Days Schedule,  ! Name
  {a08ba9b3-da35-45c7-b405-f60b07a8171c},  ! Schedule Type Limits Name
  ,                         ! Interpolate to Timestep
  24,                       ! Hour 1
  0,                        ! Minute 1
  0;                        ! Value Until Time 1

OS:Schedule:Day,
  {65aee9ad-035e-4919-ba03-7fb41e4a6e90},  ! Handle
  Medium Office Number of People Summer Design Day Schedule,  ! Name
  {a08ba9b3-da35-45c7-b405-f60b07a8171c},  ! Schedule Type Limits Name
  ,                         ! Interpolate to Timestep
  6,                        ! Hour 1
  0,                        ! Minute 1
  0,                        ! Value Until Time 1
  22,                       ! Hour 2
  0,                        ! Minute 2
  1,                        ! Value Until Time 2
  24,                       ! Hour 3
  0,                        ! Minute 3
  0.05;                     ! Value Until Time 3

OS:Schedule:Day,
  {50fad347-09a7-489d-9282-f620ef956825},  ! Handle
  OS:Schedule:Day 1,        ! Name
  {a08ba9b3-da35-45c7-b405-f60b07a8171c},  ! Schedule Type Limits Name
  ,                         ! Interpolate to Timestep
  6,                        ! Hour 1
  0,                        ! Minute 1
  0,                        ! Value Until Time 1
  22,                       ! Hour 2
  0,                        ! Minute 2
  1,                        ! Value Until Time 2
  24,                       ! Hour 3
  0,                        ! Minute 3
  0.05;                     ! Value Until Time 3

OS:Schedule:Rule,
  {44c48d96-a66f-49c6-87d9-0789606bc88a},  ! Handle
  Medium Office Number of People Schedule Weekdays Rule,  ! Name
  {aa455aba-0ca4-4972-a630-ab515c948989},  ! Schedule Ruleset Name
  1,                        ! Rule Order
  {c6b69ac1-be76-48ea-9ce0-2262ad43585d},  ! Day Schedule Name
  ,                         ! Apply Sunday
  Yes,                      ! Apply Monday
  Yes,                      ! Apply Tuesday
  Yes,                      ! Apply Wednesday
  Yes,                      ! Apply Thursday
  Yes;                      ! Apply Friday

OS:Schedule:Day,
  {c6b69ac1-be76-48ea-9ce0-2262ad43585d},  ! Handle
  Medium Office Number of People Weekdays Schedule,  ! Name
  {a08ba9b3-da35-45c7-b405-f60b07a8171c},  ! Schedule Type Limits Name
  ,                         ! Interpolate to Timestep
  6,                        ! Hour 1
  0,                        ! Minute 1
  0,                        ! Value Until Time 1
  7,                        ! Hour 2
  0,                        ! Minute 2
  0.1,                      ! Value Until Time 2
  8,                        ! Hour 3
  0,                        ! Minute 3
  0.2,                      ! Value Until Time 3
  12,                       ! Hour 4
  0,                        ! Minute 4
  0.95,                     ! Value Until Time 4
  13,                       ! Hour 5
  0,                        ! Minute 5
  0.5,                      ! Value Until Time 5
  17,                       ! Hour 6
  0,                        ! Minute 6
  0.95,                     ! Value Until Time 6
  18,                       ! Hour 7
  0,                        ! Minute 7
  0.7,                      ! Value Until Time 7
  20,                       ! Hour 8
  0,                        ! Minute 8
  0.4,                      ! Value Until Time 8
  22,                       ! Hour 9
  0,                        ! Minute 9
  0.1,                      ! Value Until Time 9
  24,                       ! Hour 10
  0,                        ! Minute 10
  0.05;                     ! Value Until Time 10

OS:Schedule:Rule,
  {9128df6b-cd9c-4459-a7ee-43853b87bc6d},  ! Handle
  Medium Office Number of People Schedule Saturday Rule,  ! Name
  {aa455aba-0ca4-4972-a630-ab515c948989},  ! Schedule Ruleset Name
  0,                        ! Rule Order
  {0e8cb28e-b9fe-45da-abee-6073c6762ed9},  ! Day Schedule Name
  ,                         ! Apply Sunday
  ,                         ! Apply Monday
  ,                         ! Apply Tuesday
  ,                         ! Apply Wednesday
  ,                         ! Apply Thursday
  ,                         ! Apply Friday
  Yes;                      ! Apply Saturday

OS:Schedule:Day,
  {0e8cb28e-b9fe-45da-abee-6073c6762ed9},  ! Handle
  Medium Office Number of People Saturday Schedule,  ! Name
  {a08ba9b3-da35-45c7-b405-f60b07a8171c},  ! Schedule Type Limits Name
  ,                         ! Interpolate to Timestep
  6,                        ! Hour 1
  0,                        ! Minute 1
  0,                        ! Value Until Time 1
  8,                        ! Hour 2
  0,                        ! Minute 2
  0.1,                      ! Value Until Time 2
  14,                       ! Hour 3
  0,                        ! Minute 3
  0.5,                      ! Value Until Time 3
  17,                       ! Hour 4
  0,                        ! Minute 4
  0.1,                      ! Value Until Time 4
  24,                       ! Hour 5
  0,                        ! Minute 5
  0;                        ! Value Until Time 5

OS:Schedule:Ruleset,
  {5588a4ac-d3f6-4653-83e6-9e102595d6d3},  ! Handle
  Medium Office People Activity Level Schedule,  ! Name
  ,                         ! Schedule Type Limits Name
  {0c252c83-72a5-4d52-993b-1885b9a256ae};  ! Default Day Schedule Name

OS:Schedule:Day,
  {0c252c83-72a5-4d52-993b-1885b9a256ae},  ! Handle
  Medium Office People Activity Level All Days Schedule,  ! Name
  {1b5ed0db-3bd2-44d8-9f41-cdbc463b5e11},  ! Schedule Type Limits Name
  ,                         ! Interpolate to Timestep
  24,                       ! Hour 1
  0,                        ! Minute 1
  120;                      ! Value Until Time 1

OS:Schedule:Ruleset,
  {81882c06-affe-48da-9122-515d927eca56},  ! Handle
  Medium Office Lighting Schedule,  ! Name
  ,                         ! Schedule Type Limits Name
  {1fa7fb8d-551c-4781-b3ce-cf4d5bc2f779},  ! Default Day Schedule Name
  {26727333-5f4a-46cf-a0bf-e3e586ae7ac3},  ! Summer Design Day Schedule Name
  {435cd4b4-1aa7-4bae-bac8-7b9af0b0e2d5};  ! Winter Design Day Schedule Name

OS:Schedule:Day,
  {1fa7fb8d-551c-4781-b3ce-cf4d5bc2f779},  ! Handle
  Medium Office Lighting All Other Days Schedule,  ! Name
  {a08ba9b3-da35-45c7-b405-f60b07a8171c},  ! Schedule Type Limits Name
  ,                         ! Interpolate to Timestep
  24,                       ! Hour 1
  0,                        ! Minute 1
  0.05;                     ! Value Until Time 1

OS:Schedule:Day,
  {d778962d-ff2a-44fa-8fa9-90f3e5b2aebe},  ! Handle
  Medium Office Lighting Summer Design Day Schedule,  ! Name
  {a08ba9b3-da35-45c7-b405-f60b07a8171c},  ! Schedule Type Limits Name
  ,                         ! Interpolate to Timestep
  6,                        ! Hour 1
  0,                        ! Minute 1
  1,                        ! Value Until Time 1
  24,                       ! Hour 2
  0,                        ! Minute 2
  0;                        ! Value Until Time 2

OS:Schedule:Day,
  {26727333-5f4a-46cf-a0bf-e3e586ae7ac3},  ! Handle
  OS:Schedule:Day 2,        ! Name
  {a08ba9b3-da35-45c7-b405-f60b07a8171c},  ! Schedule Type Limits Name
  ,                         ! Interpolate to Timestep
  6,                        ! Hour 1
  0,                        ! Minute 1
  1,                        ! Value Until Time 1
  24,                       ! Hour 2
  0,                        ! Minute 2
  0;                        ! Value Until Time 2

OS:Schedule:Day,
  {0de3c0bf-5e95-48e9-83f2-6c38069a799e},  ! Handle
  Medium Office Lighting Winter Design Day Schedule,  ! Name
  {a08ba9b3-da35-45c7-b405-f60b07a8171c},  ! Schedule Type Limits Name
  ,                         ! Interpolate to Timestep
  24,                       ! Hour 1
  0,                        ! Minute 1
  0;                        ! Value Until Time 1

OS:Schedule:Day,
  {435cd4b4-1aa7-4bae-bac8-7b9af0b0e2d5},  ! Handle
  OS:Schedule:Day 3,        ! Name
  {a08ba9b3-da35-45c7-b405-f60b07a8171c},  ! Schedule Type Limits Name
  ,                         ! Interpolate to Timestep
  24,                       ! Hour 1
  0,                        ! Minute 1
  0;                        ! Value Until Time 1

OS:Schedule:Rule,
  {b23e7afc-c503-4f22-b36c-c4a9a983c680},  ! Handle
  Medium Office Lighting Schedule Weekdays Rule,  ! Name
  {81882c06-affe-48da-9122-515d927eca56},  ! Schedule Ruleset Name
  1,                        ! Rule Order
  {2aa09540-a043-4fc3-bb48-3d058d026fd5},  ! Day Schedule Name
  ,                         ! Apply Sunday
  Yes,                      ! Apply Monday
  Yes,                      ! Apply Tuesday
  Yes,                      ! Apply Wednesday
  Yes,                      ! Apply Thursday
  Yes;                      ! Apply Friday

OS:Schedule:Day,
  {2aa09540-a043-4fc3-bb48-3d058d026fd5},  ! Handle
  Medium Office Lighting Weekdays Schedule,  ! Name
  {a08ba9b3-da35-45c7-b405-f60b07a8171c},  ! Schedule Type Limits Name
  ,                         ! Interpolate to Timestep
  5,                        ! Hour 1
  0,                        ! Minute 1
  0.05,                     ! Value Until Time 1
  7,                        ! Hour 2
  0,                        ! Minute 2
  0.1,                      ! Value Until Time 2
  8,                        ! Hour 3
  0,                        ! Minute 3
  0.3,                      ! Value Until Time 3
  17,                       ! Hour 4
  0,                        ! Minute 4
  0.9,                      ! Value Until Time 4
  18,                       ! Hour 5
  0,                        ! Minute 5
  0.7,                      ! Value Until Time 5
  20,                       ! Hour 6
  0,                        ! Minute 6
  0.5,                      ! Value Until Time 6
  22,                       ! Hour 7
  0,                        ! Minute 7
  0.3,                      ! Value Until Time 7
  23,                       ! Hour 8
  0,                        ! Minute 8
  0.1,                      ! Value Until Time 8
  24,                       ! Hour 9
  0,                        ! Minute 9
  0.05;                     ! Value Until Time 9

OS:Schedule:Rule,
  {ba906cf3-6359-4ea5-83c4-1c8529b0f22f},  ! Handle
  Medium Office Lighting Schedule Saturday Rule,  ! Name
  {81882c06-affe-48da-9122-515d927eca56},  ! Schedule Ruleset Name
  0,                        ! Rule Order
  {634a84da-e44d-4501-b5df-7f2dcb1b6283},  ! Day Schedule Name
  ,                         ! Apply Sunday
  ,                         ! Apply Monday
  ,                         ! Apply Tuesday
  ,                         ! Apply Wednesday
  ,                         ! Apply Thursday
  ,                         ! Apply Friday
  Yes;                      ! Apply Saturday

OS:Schedule:Day,
  {634a84da-e44d-4501-b5df-7f2dcb1b6283},  ! Handle
  Medium Office Lighting Saturday Schedule,  ! Name
  {a08ba9b3-da35-45c7-b405-f60b07a8171c},  ! Schedule Type Limits Name
  ,                         ! Interpolate to Timestep
  6,                        ! Hour 1
  0,                        ! Minute 1
  0.05,                     ! Value Until Time 1
  8,                        ! Hour 2
  0,                        ! Minute 2
  0.1,                      ! Value Until Time 2
  14,                       ! Hour 3
  0,                        ! Minute 3
  0.5,                      ! Value Until Time 3
  17,                       ! Hour 4
  0,                        ! Minute 4
  0.15,                     ! Value Until Time 4
  24,                       ! Hour 5
  0,                        ! Minute 5
  0.05;                     ! Value Until Time 5

OS:Schedule:Ruleset,
  {ae38fd59-1d8f-40cd-a553-6b2ad0c4e6b7},  ! Handle
  Medium Office Electric Equipment Schedule,  ! Name
  ,                         ! Schedule Type Limits Name
  {bc9fac0f-dcee-4989-8c22-9d5a25aef7fb},  ! Default Day Schedule Name
  {7873ae0f-299f-41eb-a906-d9a26353302e},  ! Summer Design Day Schedule Name
  {842a0100-1489-46ad-8e9b-ee89666d399e};  ! Winter Design Day Schedule Name

OS:Schedule:Day,
  {bc9fac0f-dcee-4989-8c22-9d5a25aef7fb},  ! Handle
  Medium Office Electric Equipment All Other Days Schedule,  ! Name
  {a08ba9b3-da35-45c7-b405-f60b07a8171c},  ! Schedule Type Limits Name
  ,                         ! Interpolate to Timestep
  24,                       ! Hour 1
  0,                        ! Minute 1
  0.3;                      ! Value Until Time 1

OS:Schedule:Day,
  {89c02575-d0bf-4d4f-847e-7b4838df1ae5},  ! Handle
  Medium Office Electric Equipment Summer Design Day Schedule,  ! Name
  {a08ba9b3-da35-45c7-b405-f60b07a8171c},  ! Schedule Type Limits Name
  ,                         ! Interpolate to Timestep
  6,                        ! Hour 1
  0,                        ! Minute 1
  1,                        ! Value Until Time 1
  24,                       ! Hour 2
  0,                        ! Minute 2
  0;                        ! Value Until Time 2

OS:Schedule:Day,
  {7873ae0f-299f-41eb-a906-d9a26353302e},  ! Handle
  OS:Schedule:Day 4,        ! Name
  {a08ba9b3-da35-45c7-b405-f60b07a8171c},  ! Schedule Type Limits Name
  ,                         ! Interpolate to Timestep
  6,                        ! Hour 1
  0,                        ! Minute 1
  1,                        ! Value Until Time 1
  24,                       ! Hour 2
  0,                        ! Minute 2
  0;                        ! Value Until Time 2

OS:Schedule:Day,
  {b520ff5d-e7bc-4b5c-94bf-7106fb5569a9},  ! Handle
  Medium Office Electric Equipment Winter Design Day Schedule,  ! Name
  {a08ba9b3-da35-45c7-b405-f60b07a8171c},  ! Schedule Type Limits Name
  ,                         ! Interpolate to Timestep
  24,                       ! Hour 1
  0,                        ! Minute 1
  0;                        ! Value Until Time 1

OS:Schedule:Day,
  {842a0100-1489-46ad-8e9b-ee89666d399e},  ! Handle
  OS:Schedule:Day 5,        ! Name
  {a08ba9b3-da35-45c7-b405-f60b07a8171c},  ! Schedule Type Limits Name
  ,                         ! Interpolate to Timestep
  24,                       ! Hour 1
  0,                        ! Minute 1
  0;                        ! Value Until Time 1

OS:Schedule:Rule,
  {8d25859c-0be5-4bda-8d19-20282a5662cf},  ! Handle
  Medium Office Electric Equipment Schedule Weekdays Rule,  ! Name
  {ae38fd59-1d8f-40cd-a553-6b2ad0c4e6b7},  ! Schedule Ruleset Name
  1,                        ! Rule Order
  {1e50f260-789e-4b66-a43a-1adc74612631},  ! Day Schedule Name
  ,                         ! Apply Sunday
  Yes,                      ! Apply Monday
  Yes,                      ! Apply Tuesday
  Yes,                      ! Apply Wednesday
  Yes,                      ! Apply Thursday
  Yes;                      ! Apply Friday

OS:Schedule:Day,
  {1e50f260-789e-4b66-a43a-1adc74612631},  ! Handle
  Medium Office Electric Equipment Weekdays Schedule,  ! Name
  {a08ba9b3-da35-45c7-b405-f60b07a8171c},  ! Schedule Type Limits Name
  ,                         ! Interpolate to Timestep
  8,                        ! Hour 1
  0,                        ! Minute 1
  0.4,                      ! Value Until Time 1
  12,                       ! Hour 2
  0,                        ! Minute 2
  0.9,                      ! Value Until Time 2
  13,                       ! Hour 3
  0,                        ! Minute 3
  0.8,                      ! Value Until Time 3
  17,                       ! Hour 4
  0,                        ! Minute 4
  0.9,                      ! Value Until Time 4
  18,                       ! Hour 5
  0,                        ! Minute 5
  0.8,                      ! Value Until Time 5
  20,                       ! Hour 6
  0,                        ! Minute 6
  0.6,                      ! Value Until Time 6
  22,                       ! Hour 7
  0,                        ! Minute 7
  0.5,                      ! Value Until Time 7
  24,                       ! Hour 8
  0,                        ! Minute 8
  0.4;                      ! Value Until Time 8

OS:Schedule:Rule,
  {efb86802-6f2e-4eb4-9c75-f498403a0396},  ! Handle
  Medium Office Electric Equipment Schedule Saturday Rule,  ! Name
  {ae38fd59-1d8f-40cd-a553-6b2ad0c4e6b7},  ! Schedule Ruleset Name
  0,                        ! Rule Order
  {04d08cb8-ce60-4cec-a85f-aac1d4da0e23},  ! Day Schedule Name
  ,                         ! Apply Sunday
  ,                         ! Apply Monday
  ,                         ! Apply Tuesday
  ,                         ! Apply Wednesday
  ,                         ! Apply Thursday
  ,                         ! Apply Friday
  Yes;                      ! Apply Saturday

OS:Schedule:Day,
  {04d08cb8-ce60-4cec-a85f-aac1d4da0e23},  ! Handle
  Medium Office Electric Equipment Saturday Schedule,  ! Name
  {a08ba9b3-da35-45c7-b405-f60b07a8171c},  ! Schedule Type Limits Name
  ,                         ! Interpolate to Timestep
  6,                        ! Hour 1
  0,                        ! Minute 1
  0.3,                      ! Value Until Time 1
  8,                        ! Hour 2
  0,                        ! Minute 2
  0.4,                      ! Value Until Time 2
  14,                       ! Hour 3
  0,                        ! Minute 3
  0.5,                      ! Value Until Time 3
  17,                       ! Hour 4
  0,                        ! Minute 4
  0.35,                     ! Value Until Time 4
  24,                       ! Hour 5
  0,                        ! Minute 5
  0.3;                      ! Value Until Time 5

OS:Schedule:Ruleset,
  {643290d4-d63a-40a9-a7b3-5a228b11fcad},  ! Handle
  Medium Office Gas Equipment Schedule,  ! Name
  ,                         ! Schedule Type Limits Name
  {2234dd35-6a16-4c38-89cb-1247871bdb19},  ! Default Day Schedule Name
  {0427d330-5837-44bd-93de-16400c452f93},  ! Summer Design Day Schedule Name
  {fd0b4198-b173-4554-872c-442d8a9567ac};  ! Winter Design Day Schedule Name

OS:Schedule:Day,
  {2234dd35-6a16-4c38-89cb-1247871bdb19},  ! Handle
  Medium Office Gas Equipment All Other Days Schedule,  ! Name
  {a08ba9b3-da35-45c7-b405-f60b07a8171c},  ! Schedule Type Limits Name
  ,                         ! Interpolate to Timestep
  24,                       ! Hour 1
  0,                        ! Minute 1
  0.3;                      ! Value Until Time 1

OS:Schedule:Day,
  {ca1cecb3-d260-465f-bc02-a3c53e15ccbb},  ! Handle
  Medium Office Gas Equipment Summer Design Day Schedule,  ! Name
  {a08ba9b3-da35-45c7-b405-f60b07a8171c},  ! Schedule Type Limits Name
  ,                         ! Interpolate to Timestep
  6,                        ! Hour 1
  0,                        ! Minute 1
  1,                        ! Value Until Time 1
  24,                       ! Hour 2
  0,                        ! Minute 2
  0;                        ! Value Until Time 2

OS:Schedule:Day,
  {0427d330-5837-44bd-93de-16400c452f93},  ! Handle
  OS:Schedule:Day 6,        ! Name
  {a08ba9b3-da35-45c7-b405-f60b07a8171c},  ! Schedule Type Limits Name
  ,                         ! Interpolate to Timestep
  6,                        ! Hour 1
  0,                        ! Minute 1
  1,                        ! Value Until Time 1
  24,                       ! Hour 2
  0,                        ! Minute 2
  0;                        ! Value Until Time 2

OS:Schedule:Day,
  {49149c43-c2bf-48e3-81f7-694e4a2c2863},  ! Handle
  Medium Office Gas Equipment Winter Design Day Schedule,  ! Name
  {a08ba9b3-da35-45c7-b405-f60b07a8171c},  ! Schedule Type Limits Name
  ,                         ! Interpolate to Timestep
  24,                       ! Hour 1
  0,                        ! Minute 1
  0;                        ! Value Until Time 1

OS:Schedule:Day,
  {fd0b4198-b173-4554-872c-442d8a9567ac},  ! Handle
  OS:Schedule:Day 7,        ! Name
  {a08ba9b3-da35-45c7-b405-f60b07a8171c},  ! Schedule Type Limits Name
  ,                         ! Interpolate to Timestep
  24,                       ! Hour 1
  0,                        ! Minute 1
  0;                        ! Value Until Time 1

OS:Schedule:Rule,
  {07327ddc-03b9-4675-8a09-8ff38010e6f2},  ! Handle
  Medium Office Gas Equipment Schedule Weekdays Rule,  ! Name
  {643290d4-d63a-40a9-a7b3-5a228b11fcad},  ! Schedule Ruleset Name
  1,                        ! Rule Order
  {8b54dd25-fcc8-47ab-a887-2157af19a40b},  ! Day Schedule Name
  ,                         ! Apply Sunday
  Yes,                      ! Apply Monday
  Yes,                      ! Apply Tuesday
  Yes,                      ! Apply Wednesday
  Yes,                      ! Apply Thursday
  Yes;                      ! Apply Friday

OS:Schedule:Day,
  {8b54dd25-fcc8-47ab-a887-2157af19a40b},  ! Handle
  Medium Office Gas Equipment Weekdays Schedule,  ! Name
  {a08ba9b3-da35-45c7-b405-f60b07a8171c},  ! Schedule Type Limits Name
  ,                         ! Interpolate to Timestep
  8,                        ! Hour 1
  0,                        ! Minute 1
  0.4,                      ! Value Until Time 1
  12,                       ! Hour 2
  0,                        ! Minute 2
  0.9,                      ! Value Until Time 2
  13,                       ! Hour 3
  0,                        ! Minute 3
  0.8,                      ! Value Until Time 3
  17,                       ! Hour 4
  0,                        ! Minute 4
  0.9,                      ! Value Until Time 4
  18,                       ! Hour 5
  0,                        ! Minute 5
  0.8,                      ! Value Until Time 5
  20,                       ! Hour 6