  Version,24.2;

  Timestep,4;

  LifeCycleCost:Parameters,
    Life Cycle Cost Parameters,  !- Name
    EndOfYear,               !- Discounting Convention
    ConstantDollar,          !- Inflation Approach
    0.03,                    !- Real Discount Rate
    ,                        !- Nominal Discount Rate
    ,                        !- Inflation
    ,                        !- Base Date Month
    2011,                    !- Base Date Year
    ,                        !- Service Date Month
    2011,                    !- Service Date Year
    25,                      !- Length of Study Period in Years
    ,                        !- Tax rate
    None;                    !- Depreciation Method

  LifeCycleCost:UsePriceEscalation,
    U.S. Avg  Commercial-Electricity,  !- LCC Price Escalation Name
    Electricity,             !- Resource
    2011,                    !- Escalation Start Year
    January,                 !- Escalation Start Month
    0.9838,                  !- Year 1 Escalation
    0.9730,                  !- Year 2 Escalation
    0.9632,                  !- Year 3 Escalation
    0.9611,                  !- Year 4 Escalation
    0.9571,                  !- Year 5 Escalation
    0.9553,                  !- Year 6 Escalation
    0.9539,                  !- Year 7 Escalation
    0.9521,                  !- Year 8 Escalation
    0.9546,                  !- Year 9 Escalation
    0.9550,                  !- <none>
    0.9553,                  !- <none>
    0.9564,                  !- <none>
    0.9575,                  !- <none>
    0.9596,                  !- <none>
    0.9618,                  !- <none>
    0.9614,                  !- <none>
    0.9618,                  !- <none>
    0.9618,                  !- <none>
    0.9593,                  !- <none>
    0.9589,                  !- <none>
    0.9607,                  !- <none>
    0.9625,                  !- <none>
    0.9650,                  !- <none>
    0.9708,                  !- <none>
    0.9751,                  !- <none>
    0.9762,                  !- <none>
    0.9766,                  !- <none>
    0.9766,                  !- <none>
    0.9769,                  !- <none>
    0.9773;                  !- <none>

  LifeCycleCost:UsePriceEscalation,
    U.S. Avg  Commercial-Distillate Oil,  !- LCC Price Escalation Name
    FuelOilNo1,              !- Resource
    2011,                    !- Escalation Start Year
    January,                 !- Escalation Start Month
    0.9714,                  !- Year 1 Escalation
    0.9730,                  !- Year 2 Escalation
    0.9942,                  !- Year 3 Escalation
    1.0164,                  !- Year 4 Escalation
    1.0541,                  !- Year 5 Escalation
    1.0928,                  !- Year 6 Escalation
    1.1267,                  !- Year 7 Escalation
    1.1580,                  !- Year 8 Escalation
    1.1792,                  !- Year 9 Escalation
    1.1967,                  !- <none>
    1.2200,                  !- <none>
    1.2333,                  !- <none>
    1.2566,                  !- <none>
    1.2709,                  !- <none>
    1.2826,                  !- <none>
    1.2985,                  !- <none>
    1.3102,                  !- <none>
    1.3250,                  !- <none>
    1.3261,                  !- <none>
    1.3282,                  !- <none>
    1.3324,                  !- <none>
    1.3356,                  !- <none>
    1.3431,                  !- <none>
    1.3510,                  !- <none>
    1.3568,                  !- <none>
    1.3606,                  !- <none>
    1.3637,                  !- <none>
    1.3674,                  !- <none>
    1.3706,                  !- <none>
    1.3743;                  !- <none>

  LifeCycleCost:UsePriceEscalation,
    U.S. Avg  Commercial-Residual Oil,  !- LCC Price Escalation Name
    FuelOilNo2,              !- Resource
    2011,                    !- Escalation Start Year
    January,                 !- Escalation Start Month
    0.8469,                  !- Year 1 Escalation
    0.8257,                  !- Year 2 Escalation
    0.8681,                  !- Year 3 Escalation
    0.8988,                  !- Year 4 Escalation
    0.9289,                  !- Year 5 Escalation
    0.9604,                  !- Year 6 Escalation
    0.9897,                  !- Year 7 Escalation
    1.0075,                  !- Year 8 Escalation
    1.0314,                  !- Year 9 Escalation
    1.0554,                  !- <none>
    1.0861,                  !- <none>
    1.1278,                  !- <none>
    1.1497,                  !- <none>
    1.1620,                  !- <none>
    1.1743,                  !- <none>
    1.1852,                  !- <none>
    1.1948,                  !- <none>
    1.2037,                  !- <none>
    1.2071,                  !- <none>
    1.2119,                  !- <none>
    1.2139,                  !- <none>
    1.2194,                  !- <none>
    1.2276,                  !- <none>
    1.2365,                  !- <none>
    1.2420,                  !- <none>
    1.2461,                  !- <none>
    1.2509,                  !- <none>
    1.2550,                  !- <none>
    1.2591,                  !- <none>
    1.2638;                  !- <none>

  LifeCycleCost:UsePriceEscalation,
    U.S. Avg  Commercial-Natural gas,  !- LCC Price Escalation Name
    NaturalGas,              !- Resource
    2011,                    !- Escalation Start Year
    January,                 !- Escalation Start Month
    0.9823,                  !- Year 1 Escalation
    0.9557,                  !- Year 2 Escalation
    0.9279,                  !- Year 3 Escalation
    0.9257,                  !- Year 4 Escalation
    0.9346,                  !- Year 5 Escalation
    0.9412,                  !- Year 6 Escalation
    0.9512,                  !- Year 7 Escalation
    0.9645,                  !- Year 8 Escalation
    0.9856,                  !- Year 9 Escalation
    1.0067,                  !- <none>
    1.0222,                  !- <none>
    1.0410,                  !- <none>
    1.0610,                  !- <none>
    1.0787,                  !- <none>
    1.0942,                  !- <none>
    1.1098,                  !- <none>
    1.1220,                  !- <none>
    1.1308,                  !- <none>
    1.1386,                  !- <none>
    1.1486,                  !- <none>
    1.1619,                  !- <none>
    1.1763,                  !- <none>
    1.1918,                  !- <none>
    1.2118,                  !- <none>
    1.2284,                  !- <none>
    1.2439,                  !- <none>
    1.2605,                  !- <none>
    1.2772,                  !- <none>
    1.2938,                  !- <none>
    1.3115;                  !- <none>

  LifeCycleCost:UsePriceEscalation,
    U.S. Avg  Commercial-Coal,  !- LCC Price Escalation Name
    Coal,                    !- Resource
    2011,                    !- Escalation Start Year
    January,                 !- Escalation Start Month
    0.9970,                  !- Year 1 Escalation
    1.0089,                  !- Year 2 Escalation
    1.0089,                  !- Year 3 Escalation
    0.9941,                  !- Year 4 Escalation
    0.9941,                  !- Year 5 Escalation
    1.0000,                  !- Year 6 Escalation
    1.0030,                  !- Year 7 Escalation
    1.0059,                  !- Year 8 Escalation
    1.0089,                  !- Year 9 Escalation
    1.0119,                  !- <none>
    1.0148,                  !- <none>
    1.0178,                  !- <none>
    1.0208,                  !- <none>
    1.0267,                  !- <none>
    1.0297,                  !- <none>
    1.0356,                  !- <none>
    1.0415,                  !- <none>
    1.0534,                  !- <none>
    1.0564,                  !- <none>
    1.0593,                  !- <none>
    1.0653,                  !- <none>
    1.0712,                  !- <none>
    1.0742,                  !- <none>
    1.0801,                  !- <none>
    1.0831,                  !- <none>
    1.0831,                  !- <none>
    1.0861,                  !- <none>
    1.0890,                  !- <none>
    1.0920,                  !- <none>
    1.0950;                  !- <none>

  Building,
    Building 1,              !- Name
    ,                        !- North Axis {deg}
    ,                        !- Terrain
    ,                        !- Loads Convergence Tolerance Value {W}
    ,                        !- Temperature Convergence Tolerance Value {deltaC}
    ,                        !- Solar Distribution
    ,                        !- Maximum Number of Warmup Days
    ;                        !- Minimum Number of Warmup Days

  Zone,
    Story 1 Core Thermal Zone,  !- Name
    -0,                      !- Direction of Relative North {deg}
    3,                       !- X Origin {m}
    3,                       !- Y Origin {m}
    0,                       !- Z Origin {m}
    ,                        !- Type
    ,                        !- Multiplier
    ,                        !- Ceiling Height {m}
    ,                        !- Volume {m3}
    ,                        !- Floor Area {m2}
    ,                        !- Zone Inside Convection Algorithm
    ;                        !- Zone Outside Convection Algorithm

  BuildingSurface:Detailed,
    Surface 25,              !- Name
    Floor,                   !- Surface Type
    000_ExtSlabCarpet_4in_ClimateZone 1-8,  !- Construction Name
    Story 1 Core Thermal Zone,  !- Zone Name
    ,                        !- Space Name
    Ground,                  !- Outside Boundary Condition
    ,                        !- Outside Boundary Condition Object
    NoSun,                   !- Sun Exposure
    NoWind,                  !- Wind Exposure
    ,                        !- View Factor to Ground
    ,                        !- Number of Vertices
    0,0,0,  !- X,Y,Z ==> Vertex 1 {m}
    0,44,0,  !- X,Y,Z ==> Vertex 2 {m}
    94,44,0,  !- X,Y,Z ==> Vertex 3 {m}
    94,0,0;  !- X,Y,Z ==> Vertex 4 {m}

  BuildingSurface:Detailed,
    Surface 26,              !- Name
    Wall,                    !- Surface Type
    000_Interior Wall,       !- Construction Name
    Story 1 Core Thermal Zone,  !- Zone Name
    ,                        !- Space Name
    Surface,                 !- Outside Boundary Condition
    Surface 4,               !- Outside Boundary Condition Object
    NoSun,                   !- Sun Exposure
    NoWind,                  !- Wind Exposure
    ,                        !- View Factor to Ground
    ,                        !- Number of Vertices
    0,44,4,  !- X,Y,Z ==> Vertex 1 {m}
    0,44,0,  !- X,Y,Z ==> Vertex 2 {m}
    0,0,0,  !- X,Y,Z ==> Vertex 3 {m}
    0,0,4;  !- X,Y,Z ==> Vertex 4 {m}

  BuildingSurface:Detailed,
    Surface 27,              !- Name
    Wall,                    !- Surface Type
    000_Interior Wall,       !- Construction Name
    Story 1 Core Thermal Zone,  !- Zone Name
    ,                        !- Space Name
    Surface,                 !- Outside Boundary Condition
    Surface 10,              !- Outside Boundary Condition Object
    NoSun,                   !- Sun Exposure
    NoWind,                  !- Wind Exposure
    ,                        !- View Factor to Ground
    ,                        !- Number of Vertices
    94,44,4,  !- X,Y,Z ==> Vertex 1 {m}
    94,44,0,  !- X,Y,Z ==> Vertex 2 {m}
    0,44,0,  !- X,Y,Z ==> Vertex 3 {m}
    0,44,4;  !- X,Y,Z ==> Vertex 4 {m}

  BuildingSurface:Detailed,
    Surface 28,              !- Name
    Wall,                    !- Surface Type
    000_Interior Wall,       !- Construction Name
    Story 1 Core Thermal Zone,  !- Zone Name
    ,                        !- Space Name
    Surface,                 !- Outside Boundary Condition
    Surface 16,              !- Outside Boundary Condition Object
    NoSun,                   !- Sun Exposure
    NoWind,                  !- Wind Exposure
    ,                        !- View Factor to Ground
    ,                        !- Number of Vertices
    94,0,4,  !- X,Y,Z ==> Vertex 1 {m}
    94,0,0,  !- X,Y,Z ==> Vertex 2 {m}
    94,44,0,  !- X,Y,Z ==> Vertex 3 {m}
    94,44,4;  !- X,Y,Z ==> Vertex 4 {m}

  BuildingSurface:Detailed,
    Surface 29,              !- Name
    Wall,                    !- Surface Type
    000_Interior Wall,       !- Construction Name
    Story 1 Core Thermal Zone,  !- Zone Name
    ,                        !- Space Name
    Surface,                 !- Outside Boundary Condition
    Surface 22,              !- Outside Boundary Condition Object
    NoSun,                   !- Sun Exposure
    NoWind,                  !- Wind Exposure
    ,                        !- View Factor to Ground
    ,                        !- Number of Vertices
    0,0,4,  !- X,Y,Z ==> Vertex 1 {m}
    0,0,0,  !- X,Y,Z ==> Vertex 2 {m}
    94,0,0,  !- X,Y,Z ==> Vertex 3 {m}
    94,0,4;  !- X,Y,Z ==> Vertex 4 {m}

  BuildingSurface:Detailed,
    Surface 30,              !- Name
    Ceiling,                 !- Surface Type
    000_Interior Ceiling,    !- Construction Name
    Story 1 Core Thermal Zone,  !- Zone Name
    ,                        !- Space Name
    Surface,                 !- Outside Boundary Condition
    Surface 55,              !- Outside Boundary Condition Object
    NoSun,                   !- Sun Exposure
    NoWind,                  !- Wind Exposure
    ,                        !- View Factor to Ground
    ,                        !- Number of Vertices
    94,0,4,  !- X,Y,Z ==> Vertex 1 {m}
    94,44,4,  !- X,Y,Z ==> Vertex 2 {m}
    0,44,4,  !- X,Y,Z ==> Vertex 3 {m}
    0,0,4;  !- X,Y,Z ==> Vertex 4 {m}

  ZoneControl:Thermostat,
    Story 1 Core Thermal Zone Thermostat,  !- Name
    Story 1 Core Thermal Zone,  !- Zone or ZoneList Name
    Story 1 Core Thermal Zone Thermostat Schedule,  !- Control Type Schedule Name
    ThermostatSetpoint:DualSetpoint,  !- Control 1 Object Type
    Thermostat Setpoint Dual Setpoint 1;  !- Control 1 Name

  Schedule:Compact,
    Story 1 Core Thermal Zone Thermostat Schedule,  !- Name
    Story 1 Core Thermal Zone Thermostat Schedule Type Limits,  !- Schedule Type Limits Name
    Through: 12/31,          !- Field 1
    For: AllDays,            !- Field 2
    Until: 24:00,4;          !- Field 3

  ScheduleTypeLimits,
    Story 1 Core Thermal Zone Thermostat Schedule Type Limits,  !- Name
    0,                       !- Lower Limit Value
    4,                       !- Upper Limit Value
    DISCRETE;                !- Numeric Type

  ThermostatSetpoint:DualSetpoint,
    Thermostat Setpoint Dual Setpoint 1,  !- Name
    Heating Sch,             !- Heating Setpoint Temperature Schedule Name
    Cooling Sch;             !- Cooling Setpoint Temperature Schedule Name

  ScheduleTypeLimits,
    Temperature,             !- Name
    ,                        !- Lower Limit Value
    ,                        !- Upper Limit Value
    Continuous,              !- Numeric Type
    temperature;             !- Unit Type

  Schedule:Day:Interval,
    Heating Sch Default,     !- Name
    Temperature,             !- Schedule Type Limits Name
    No,                      !- Interpolate to Timestep
    24:00,                   !- Time 1
    24;                      !- Value Until Time 1

  Schedule:Week:Daily,
    Heating Sch Week Rule - Jan1-Dec31,  !- Name
    Heating Sch Default,     !- Sunday Schedule:Day Name
    Heating Sch Default,     !- Monday Schedule:Day Name
    Heating Sch Default,     !- Tuesday Schedule:Day Name
    Heating Sch Default,     !- Wednesday Schedule:Day Name
    Heating Sch Default,     !- Thursday Schedule:Day Name
    Heating Sch Default,     !- Friday Schedule:Day Name
    Heating Sch Default,     !- Saturday Schedule:Day Name
    Heating Sch Default,     !- Holiday Schedule:Day Name
    Heating Sch Default,     !- SummerDesignDay Schedule:Day Name
    Heating Sch Default,     !- WinterDesignDay Schedule:Day Name
    Heating Sch Default,     !- CustomDay1 Schedule:Day Name
    Heating Sch Default;     !- CustomDay2 Schedule:Day Name

  Schedule:Year,
    Heating Sch,             !- Name
    Temperature,             !- Schedule Type Limits Name
    Heating Sch Week Rule - Jan1-Dec31,  !- Schedule:Week Name 1
    1,                       !- Start Month 1
    1,                       !- Start Day 1
    12,                      !- End Month 1
    31;                      !- End Day 1

  Schedule:Day:Interval,
    Cooling Sch Default,     !- Name
    Temperature,             !- Schedule Type Limits Name
    No,                      !- Interpolate to Timestep
    24:00,                   !- Time 1
    28;                      !- Value Until Time 1

  Schedule:Week:Daily,
    Cooling Sch Week Rule - Jan1-Dec31,  !- Name
    Cooling Sch Default,     !- Sunday Schedule:Day Name
    Cooling Sch Default,     !- Monday Schedule:Day Name
    Cooling Sch Default,     !- Tuesday Schedule:Day Name
    Cooling Sch Default,     !- Wednesday Schedule:Day Name
    Cooling Sch Default,     !- Thursday Schedule:Day Name
    Cooling Sch Default,     !- Friday Schedule:Day Name
    Cooling Sch Default,     !- Saturday Schedule:Day Name
    Cooling Sch Default,     !- Holiday Schedule:Day Name
    Cooling Sch Default,     !- SummerDesignDay Schedule:Day Name
    Cooling Sch Default,     !- WinterDesignDay Schedule:Day Name
    Cooling Sch Default,     !- CustomDay1 Schedule:Day Name
    Cooling Sch Default;     !- CustomDay2 Schedule:Day Name

  Schedule:Year,
    Cooling Sch,             !- Name
    Temperature,             !- Schedule Type Limits Name
    Cooling Sch Week Rule - Jan1-Dec31,  !- Schedule:Week Name 1
    1,                       !- Start Month 1
    1,                       !- Start Day 1
    12,                      !- End Month 1
    31;                      !- End Day 1

  ZoneHVAC:EquipmentConnections,
    Story 1 Core Thermal Zone,  !- Zone Name
    Story 1 Core Thermal Zone Equipment List,  !- Zone Conditioning Equipment List Name
    Story 1 Core Thermal Zone Inlet Node List,  !- Zone Air Inlet Node or NodeList Name
    ,                        !- Zone Air Exhaust Node or NodeList Name
    Node 1,                  !- Zone Air Node Name
    Story 1 Core Thermal Zone Return Node List;  !- Zone Return Air Node or NodeList Name

  NodeList,
    Story 1 Core Thermal Zone Inlet Node List,  !- Name
    Node 15;                 !- Node 1 Name

  NodeList,
    Story 1 Core Thermal Zone Return Node List,  !- Name
    Node 22;                 !- Node 1 Name

  AirTerminal:SingleDuct:ConstantVolume:NoReheat,
    Air Terminal Single Duct Constant Volume No Reheat 1,  !- Name
    Always On Discrete,      !- Availability Schedule Name
    Node 21,                 !- Air Inlet Node Name
    Node 15,                 !- Air Outlet Node Name
    AutoSize;                !- Maximum Air Flow Rate {m3/s}

  ZoneHVAC:AirDistributionUnit,
    ADU Air Terminal Single Duct Constant Volume No Reheat 1,  !- Name
    Node 15,                 !- Air Distribution Unit Outlet Node Name
    AirTerminal:SingleDuct:ConstantVolume:NoReheat,  !- Air Terminal Object Type
    Air Terminal Single Duct Constant Volume No Reheat 1;  !- Air Terminal Name

  ScheduleTypeLimits,
    ZoneEqList ScheduleTypeLimts,  !- Name
    0.0,                     !- Lower Limit Value
    1.0,                     !- Upper Limit Value
    Continuous;              !- Numeric Type

  Schedule:Constant,Story 1 Core Thermal Zone Equipment List CoolingFrac1,ZoneEqList ScheduleTypeLimts,1;

  Schedule:Constant,Story 1 Core Thermal Zone Equipment List HeatingFrac1,ZoneEqList ScheduleTypeLimts,1;

  ZoneHVAC:EquipmentList,
    Story 1 Core Thermal Zone Equipment List,  !- Name
    SequentialLoad,          !- Load Distribution Scheme
    ZoneHVAC:AirDistributionUnit,  !- Zone Equipment 1 Object Type
    ADU Air Terminal Single Duct Constant Volume No Reheat 1,  !- Zone Equipment 1 Name
    1,                       !- Zone Equipment 1 Cooling Sequence
    1,                       !- Zone Equipment 1 Heating or No-Load Sequence
    Story 1 Core Thermal Zone Equipment List CoolingFrac1,  !- Zone Equipment 1 Sequential Cooling Fraction Schedule Name
    Story 1 Core Thermal Zone Equipment List HeatingFrac1;  !- Zone Equipment 1 Sequential Heating Fraction Schedule Name

  Sizing:Zone,
    Story 1 Core Thermal Zone,  !- Zone or ZoneList Name
    SupplyAirTemperature,    !- Zone Cooling Design Supply Air Temperature Input Method
    14,                      !- Zone Cooling Design Supply Air Temperature {C}
    11.11,                   !- Zone Cooling Design Supply Air Temperature Difference {deltaC}
    SupplyAirTemperature,    !- Zone Heating Design Supply Air Temperature Input Method
    40,                      !- Zone Heating Design Supply Air Temperature {C}
    11.11,                   !- Zone Heating Design Supply Air Temperature Difference {deltaC}
    0.0085,                  !- Zone Cooling Design Supply Air Humidity Ratio {kgWater/kgDryAir}
    0.008,                   !- Zone Heating Design Supply Air Humidity Ratio {kgWater/kgDryAir}
    Baseline Model OA,       !- Design Specification Outdoor Air Object Name
    ,                        !- Zone Heating Sizing Factor
    ,                        !- Zone Cooling Sizing Factor
    DesignDay,               !- Cooling Design Air Flow Method
    0,                       !- Cooling Design Air Flow Rate {m3/s}
    0.000762,                !- Cooling Minimum Air Flow per Zone Floor Area {m3/s-m2}
    0,                       !- Cooling Minimum Air Flow {m3/s}
    0,                       !- Cooling Minimum Air Flow Fraction
    DesignDay,               !- Heating Design Air Flow Method
    0,                       !- Heating Design Air Flow Rate {m3/s}
    0.002032,                !- Heating Maximum Air Flow per Zone Floor Area {m3/s-m2}
    0.1415762,               !- Heating Maximum Air Flow {m3/s}
    0.3,                     !- Heating Maximum Air Flow Fraction
    Story 1 Core Thermal Zone Design Spec Zone Air Dist,  !- Design Specification Zone Air Distribution Object Name
    No,                      !- Account for Dedicated Outdoor Air System
    NeutralSupplyAir,        !- Dedicated Outdoor Air System Control Strategy
    autosize,                !- Dedicated Outdoor Air Low Setpoint Temperature for Design {C}
    autosize,                !- Dedicated Outdoor Air High Setpoint Temperature for Design {C}
    Sensible Load Only No Latent Load,  !- Zone Load Sizing Method
    HumidityRatioDifference, !- Zone Latent Cooling Design Supply Air Humidity Ratio Input Method
    ,                        !- Zone Dehumidification Design Supply Air Humidity Ratio {kgWater/kgDryAir}
    0.005,                   !- Zone Cooling Design Supply Air Humidity Ratio Difference {kgWater/kgDryAir}
    HumidityRatioDifference, !- Zone Latent Heating Design Supply Air Humidity Ratio Input Method
    ,                        !- Zone Humidification Design Supply Air Humidity Ratio {kgWater/kgDryAir}
    0.005;                   !- Zone Humidification Design Supply Air Humidity Ratio Difference {kgWater/kgDryAir}

  DesignSpecification:ZoneAirDistribution,
    Story 1 Core Thermal Zone Design Spec Zone Air Dist,  !- Name
    1,                       !- Zone Air Distribution Effectiveness in Cooling Mode {dimensionless}
    1;                       !- Zone Air Distribution Effectiveness in Heating Mode {dimensionless}

  Schedule:Constant,Always On Discrete,OnOff,1;

  Controller:MechanicalVentilation,
    Controller Mechanical Ventilation 1,  !- Name
    Always On Discrete,      !- Availability Schedule Name
    No,                      !- Demand Controlled Ventilation
    ZoneSum,                 !- System Outdoor Air Method
    ,                        !- Zone Maximum Outdoor Air Fraction {dimensionless}
    Story 1 Core Thermal Zone,  !- Zone or ZoneList 1 Name
    Baseline Model OA,       !- Design Specification Outdoor Air Object Name 1
    Story 1 Core Thermal Zone Design Spec Zone Air Dist;  !- Design Specification Zone Air Distribution Object Name 1

  DesignSpecification:OutdoorAir,
    Baseline Model OA,       !- Name
    Sum,                     !- Outdoor Air Method
    0.009438948864,          !- Outdoor Air Flow per Person {m3/s-person}
    0,                       !- Outdoor Air Flow per Zone Floor Area {m3/s-m2}
    0,                       !- Outdoor Air Flow per Zone {m3/s}
    0;                       !- Outdoor Air Flow Air Changes per Hour {1/hr}

  Zone,
    Story 1 East Perimeter Thermal Zone,  !- Name
    -0,                      !- Direction of Relative North {deg}
    97,                      !- X Origin {m}
    3,                       !- Y Origin {m}
    0,                       !- Z Origin {m}
    ,                        !- Type
    ,                        !- Multiplier
    ,                        !- Ceiling Height {m}
    ,                        !- Volume {m3}
    ,                        !- Floor Area {m2}
    ,                        !- Zone Inside Convection Algorithm
    ;                        !- Zone Outside Convection Algorithm

  BuildingSurface:Detailed,
    Surface 13,              !- Name
    Floor,                   !- Surface Type
    000_ExtSlabCarpet_4in_ClimateZone 1-8,  !- Construction Name
    Story 1 East Perimeter Thermal Zone,  !- Zone Name
    ,                        !- Space Name
    Ground,                  !- Outside Boundary Condition
    ,                        !- Outside Boundary Condition Object
    NoSun,                   !- Sun Exposure
    NoWind,                  !- Wind Exposure
    ,                        !- View Factor to Ground
    ,                        !- Number of Vertices
    3,47,0,  !- X,Y,Z ==> Vertex 1 {m}
    3,-3,0,  !- X,Y,Z ==> Vertex 2 {m}
    0,0,0,  !- X,Y,Z ==> Vertex 3 {m}
    0,44,0;  !- X,Y,Z ==> Vertex 4 {m}

  BuildingSurface:Detailed,
    Surface 14,              !- Name
    Wall,                    !- Surface Type
    ASHRAE_189.1-2009_ExtWall_SteelFrame_ClimateZone 4-8,  !- Construction Name
    Story 1 East Perimeter Thermal Zone,  !- Zone Name
    ,                        !- Space Name
    Outdoors,                !- Outside Boundary Condition
    ,                        !- Outside Boundary Condition Object
    SunExposed,              !- Sun Exposure
    WindExposed,             !- Wind Exposure
    ,                        !- View Factor to Ground
    ,                        !- Number of Vertices
    3,-3,4,  !- X,Y,Z ==> Vertex 1 {m}
    3,-3,0,  !- X,Y,Z ==> Vertex 2 {m}
    3,47,0,  !- X,Y,Z ==> Vertex 3 {m}
    3,47,4;  !- X,Y,Z ==> Vertex 4 {m}

  FenestrationSurface:Detailed,
    Sub Surface 4,           !- Name
    Window,                  !- Surface Type
    ASHRAE_189.1-2009_ExtWindow_ClimateZone 4-5,  !- Construction Name
    Surface 14,              !- Building Surface Name
    ,                        !- Outside Boundary Condition Object
    ,                        !- View Factor to Ground
    ,                        !- Frame and Divider Name
    ,                        !- Multiplier
    ,                        !- Number of Vertices
    3,-2.9746,2.60162725328934,  !- X,Y,Z ==> Vertex 1 {m}
    3,-2.9746,1,  !- X,Y,Z ==> Vertex 2 {m}
    3,46.9746,1,  !- X,Y,Z ==> Vertex 3 {m}
    3,46.9746,2.60162725328934;  !- X,Y,Z ==> Vertex 4 {m}

  BuildingSurface:Detailed,
    Surface 15,              !- Name
    Wall,                    !- Surface Type
    000_Interior Wall,       !- Construction Name
    Story 1 East Perimeter Thermal Zone,  !- Zone Name
    ,                        !- Space Name
    Surface,                 !- Outside Boundary Condition
    Surface 23,              !- Outside Boundary Condition Object
    NoSun,                   !- Sun Exposure
    NoWind,                  !- Wind Exposure
    ,                        !- View Factor to Ground
    ,                        !- Number of Vertices
    0,0,4,  !- X,Y,Z ==> Vertex 1 {m}
    0,0,0,  !- X,Y,Z ==> Vertex 2 {m}
    3,-3,0,  !- X,Y,Z ==> Vertex 3 {m}
    3,-3,4;  !- X,Y,Z ==> Vertex 4 {m}

  BuildingSurface:Detailed,
    Surface 16,              !- Name
    Wall,                    !- Surface Type
    000_Interior Wall,       !- Construction Name
    Story 1 East Perimeter Thermal Zone,  !- Zone Name
    ,                        !- Space Name
    Surface,                 !- Outside Boundary Condition
    Surface 28,              !- Outside Boundary Condition Object
    NoSun,                   !- Sun Exposure
    NoWind,                  !- Wind Exposure
    ,                        !- View Factor to Ground
    ,                        !- Number of Vertices
    0,44,4,  !- X,Y,Z ==> Vertex 1 {m}
    0,44,0,  !- X,Y,Z ==> Vertex 2 {m}
    0,0,0,  !- X,Y,Z ==> Vertex 3 {m}
    0,0,4;  !- X,Y,Z ==> Vertex 4 {m}

  BuildingSurface:Detailed,
    Surface 17,              !- Name
    Wall,                    !- Surface Type
    000_Interior Wall,       !- Construction Name
    Story 1 East Perimeter Thermal Zone,  !- Zone Name
    ,                        !- Space Name
    Surface,                 !- Outside Boundary Condition
    Surface 9,               !- Outside Boundary Condition Object
    NoSun,                   !- Sun Exposure
    NoWind,                  !- Wind Exposure
    ,                        !- View Factor to Ground
    ,                        !- Number of Vertices
    3,47,4,  !- X,Y,Z ==> Vertex 1 {m}
    3,47,0,  !- X,Y,Z ==> Vertex 2 {m}
    0,44,0,  !- X,Y,Z ==> Vertex 3 {m}
    0,44,4;  !- X,Y,Z ==> Vertex 4 {m}

  BuildingSurface:Detailed,
    Surface 18,              !- Name
    Ceiling,                 !- Surface Type
    000_Interior Ceiling,    !- Construction Name
    Story 1 East Perimeter Thermal Zone,  !- Zone Name
    ,                        !- Space Name