
OS:Version,
  {a1af051f-edca-442b-99bf-0bd6c28fe0e4}, !- Handle
  1.10.1;                                 !- Version Identifier

OS:Construction,
  {4c150c42-f083-47c6-89f9-e3f1290c33c7}, !- Handle
  Interior Partition,                     !- Name
  ,                                       !- Surface Rendering Name
  {11fc1282-fdd1-4101-92af-2613d9894977}; !- Layer 1

OS:Material,
  {11fc1282-fdd1-4101-92af-2613d9894977}, !- Handle
  G05 25mm wood,                          !- Name
  MediumSmooth,                           !- Roughness
  0.0254,                                 !- Thickness {m}
  0.15,                                   !- Conductivity {W/m-K}
  608,                                    !- Density {kg/m3}
  1630;                                   !- Specific Heat {J/kg-K}

OS:ComponentData,
  {e93cf7b8-c7c7-4572-a380-2d8e5133aafa}, !- Handle
  Component Data 1,                       !- Name
  {ec131365-48c1-4eef-a0aa-8410cdaf2f88}, !- UUID
  {33d4f202-4dfa-4d5a-97f5-b8fbd56793c9}, !- Version UUID
  1452284032,                             !- Creation Timestamp
  1452284032,                             !- Version Timestamp
  {4c150c42-f083-47c6-89f9-e3f1290c33c7}, !- Name of Object 1
  {11fc1282-fdd1-4101-92af-2613d9894977}; !- Name of Object 2

