
OS:Version,
  {a75f064d-cbaa-43b3-b70e-204e3c959298}, !- Handle
  1.13.0;                                 !- Version Identifier

OS:SimulationControl,
  {a016d7ec-a52f-4401-a579-5a4099335ca8}, !- Handle
  Yes,                                    !- Do Zone Sizing Calculation
  Yes,                                    !- Do System Sizing Calculation
  ,                                       !- Do Plant Sizing Calculation
  No,                                     !- Run Simulation for Sizing Periods
  Yes;                                    !- Run Simulation for Weather File Run Periods

OS:Timestep,
  {7945c830-4f77-4831-8dec-ee2e7f23c466}, !- Handle
  6;                                      !- Number of Timesteps per Hour

OS:RunPeriod,
  {131b04a2-13e3-45e7-a5e3-f5e5fe513a7f}, !- Handle
  Run Period 1,                           !- Name
  1,                                      !- Begin Month
  1,                                      !- Begin Day of Month
  12,                                     !- End Month
  31,                                     !- End Day of Month
  No,                                     !- Use Weather File Holidays and Special Days
  No,                                     !- Use Weather File Daylight Saving Period
  No,                                     !- Apply Weekend Holiday Rule
  Yes,                                    !- Use Weather File Rain Indicators
  Yes,                                    !- Use Weather File Snow Indicators
  1;                                      !- Number of Times Runperiod to be Repeated

OS:SurfaceConvectionAlgorithm:Inside,
  {113ef604-5b20-4a38-b4c5-666846acb509}, !- Handle
  TARP;                                   !- Algorithm

OS:SurfaceConvectionAlgorithm:Outside,
  {518027a7-dfe2-48fd-86e5-bcee83e21205}, !- Handle
  DOE-2;                                  !- Algorithm

OS:HeatBalanceAlgorithm,
  {539fc1aa-d8ca-43a0-a2f6-79ca47cbaae6}, !- Handle
  ConductionTransferFunction,             !- Algorithm
  200;                                    !- Surface Temperature Upper Limit {C}

OS:ZoneAirHeatBalanceAlgorithm,
  {a37c6f61-1ae2-488e-a6ae-9676334b7c02}, !- Handle
  ThirdOrderBackwardDifference;           !- Algorithm

OS:ConvergenceLimits,
  {58cd1540-9fa6-4199-a126-c4a271ba6ec6}, !- Handle
  1;                                      !- Minimum System Timestep {minutes}

OS:ShadowCalculation,
  {948c5b95-ac04-4d24-9402-c85c364c1304}, !- Handle
  20,                                     !- Calculation Frequency
  15000;                                  !- Maximum Figures in Shadow Overlap Calculations

OS:Site,
  {62cac808-c7f3-4837-8b96-7a88bf095158}, !- Handle
  Site 1,                                 !- Name
  41.77,                                  !- Latitude {deg}
  -87.75,                                 !- Longitude {deg}
  -6,                                     !- Time Zone {hr}
  190,                                    !- Elevation {m}
  ;                                       !- Terrain

OS:Site:GroundTemperature:BuildingSurface,
  {1328fa44-7f3d-42bb-af8f-e82976f23d95}, !- Handle
  19.527,                                 !- January Ground Temperature {C}
  19.502,                                 !- February Ground Temperature {C}
  19.536,                                 !- March Ground Temperature {C}
  19.598,                                 !- April Ground Temperature {C}
  20.002,                                 !- May Ground Temperature {C}
  21.64,                                  !- June Ground Temperature {C}
  22.225,                                 !- July Ground Temperature {C}
  22.375,                                 !- August Ground Temperature {C}
  21.449,                                 !- September Ground Temperature {C}
  20.121,                                 !- October Ground Temperature {C}
  19.802,                                 !- November Ground Temperature {C}
  19.633;                                 !- December Ground Temperature {C}

OS:Site:GroundTemperature:Deep,
  {048a9c6c-580c-4ddd-af82-cb964401e061}, !- Handle
  19.527,                                 !- January Deep Ground Temperature {C}
  19.502,                                 !- February Deep Ground Temperature {C}
  19.536,                                 !- March Deep Ground Temperature {C}
  19.598,                                 !- April Deep Ground Temperature {C}
  20.002,                                 !- May Deep Ground Temperature {C}
  21.64,                                  !- June Deep Ground Temperature {C}
  22.225,                                 !- July Deep Ground Temperature {C}
  22.375,                                 !- August Deep Ground Temperature {C}
  21.449,                                 !- September Deep Ground Temperature {C}
  20.121,                                 !- October Deep Ground Temperature {C}
  19.802,                                 !- November Deep Ground Temperature {C}
  19.633;                                 !- December Deep Ground Temperature {C}

OS:Site:WaterMainsTemperature,
  {3f16a584-c201-4325-ac4b-b1019b7db268}, !- Handle
  Correlation,                            !- Calculation Method
  ,                                       !- Temperature Schedule Name
  9.69,                                   !- Annual Average Outdoor Air Temperature {C}
  28.1;                                   !- Maximum Difference In Monthly Average Outdoor Air Temperatures {deltaC}

OS:SizingPeriod:DesignDay,
  {aac3a394-c4f6-4702-b06a-0526a90d3af0}, !- Handle
  Sizing Period Design Day 1,             !- Name
  -20.6,                                  !- Maximum Dry-Bulb Temperature {C}
  0,                                      !- Daily Dry-Bulb Temperature Range {deltaC}
  -20.6,                                  !- Humidity Indicating Conditions at Maximum Dry-Bulb
  99063,                                  !- Barometric Pressure {Pa}
  4.9,                                    !- Wind Speed {m/s}
  270,                                    !- Wind Direction {deg}
  0,                                      !- Sky Clearness
  0,                                      !- Rain Indicator
  0,                                      !- Snow Indicator
  21,                                     !- Day of Month
  1,                                      !- Month
  WinterDesignDay,                        !- Day Type
  0,                                      !- Daylight Saving Time Indicator
  WetBulb,                                !- Humidity Indicating Type
  ,                                       !- Humidity Indicating Day Schedule Name
  DefaultMultipliers,                     !- Dry-Bulb Temperature Range Modifier Type
  ,                                       !- Dry-Bulb Temperature Range Modifier Schedule Name
  AshraeClearSky;                         !- Solar Model Indicator

OS:SizingPeriod:DesignDay,
  {3421b74b-d041-48f2-94d6-d87f917a912d}, !- Handle
  Sizing Period Design Day 2,             !- Name
  33.2,                                   !- Maximum Dry-Bulb Temperature {C}
  10.7,                                   !- Daily Dry-Bulb Temperature Range {deltaC}
  23.8,                                   !- Humidity Indicating Conditions at Maximum Dry-Bulb
  99063,                                  !- Barometric Pressure {Pa}
  5.3,                                    !- Wind Speed {m/s}
  230,                                    !- Wind Direction {deg}
  1,                                      !- Sky Clearness
  0,                                      !- Rain Indicator
  0,                                      !- Snow Indicator
  21,                                     !- Day of Month
  7,                                      !- Month
  SummerDesignDay,                        !- Day Type
  0,                                      !- Daylight Saving Time Indicator
  WetBulb,                                !- Humidity Indicating Type
  ,                                       !- Humidity Indicating Day Schedule Name
  DefaultMultipliers,                     !- Dry-Bulb Temperature Range Modifier Type
  ,                                       !- Dry-Bulb Temperature Range Modifier Schedule Name
  AshraeClearSky;                         !- Solar Model Indicator

OS:ScheduleTypeLimits,
  {e53ab32c-7c08-470e-8e49-8c493570a47d}, !- Handle
  Temperature,                            !- Name
  -60,                                    !- Lower Limit Value
  200,                                    !- Upper Limit Value
  CONTINUOUS,                             !- Numeric Type
  Temperature;                            !- Unit Type

OS:DefaultScheduleSet,
  {cb80c35b-0e5c-48b0-a9a6-6ff5a74c2c93}, !- Handle
  Default Schedules,                      !- Name
  ,                                       !- Hours of Operation Schedule Name
  {183f9a07-b434-4d26-8e44-034279932cb5}, !- Number of People Schedule Name
  {b9279378-2a69-4742-9248-96eed0f193de}, !- People Activity Level Schedule Name
  {2b2d78c8-c50c-400e-90ab-f216adf9a627}, !- Lighting Schedule Name
  {757989bd-48f0-4d7c-aa9e-8ad5b67dc43a}, !- Electric Equipment Schedule Name
  {b825ad10-8791-46d8-b5e7-c1d4a6e1dc8c}, !- Gas Equipment Schedule Name
  {2ed39ad3-30f6-4dec-bd45-9c6baaf435ff}, !- Hot Water Equipment Schedule Name
  {d40d14d6-5717-4d6c-be70-9ddd3b52c82c}, !- Infiltration Schedule Name
  ,                                       !- Steam Equipment Schedule Name
  ;                                       !- Other Equipment Schedule Name

OS:Schedule:Ruleset,
  {183f9a07-b434-4d26-8e44-034279932cb5}, !- Handle
  Medium Office Number of People Schedule, !- Name
  {58852aa4-1ff9-45fe-958e-2979a7106720}, !- Schedule Type Limits Name
  {c2a5e45c-d21b-4271-891c-d9232232d77c}, !- Default Day Schedule Name
  {b331e9af-4a08-49ee-8a7f-2df4f26fbe92}; !- Summer Design Day Schedule Name

OS:Schedule:Day,
  {c2a5e45c-d21b-4271-891c-d9232232d77c}, !- Handle
  Medium Office Number of People All Other Days Schedule, !- Name
  {58852aa4-1ff9-45fe-958e-2979a7106720}, !- Schedule Type Limits Name
  ,                                       !- Interpolate to Timestep
  24,                                     !- Hour 1
  0,                                      !- Minute 1
  0;                                      !- Value Until Time 1

OS:Schedule:Day,
  {899cebf6-f88f-41d3-8ab6-1cdbd2fd0881}, !- Handle
  Medium Office Number of People Summer Design Day Schedule, !- Name
  ,                                       !- Schedule Type Limits Name
  ,                                       !- Interpolate to Timestep
  6,                                      !- Hour 1
  0,                                      !- Minute 1
  0,                                      !- Value Until Time 1
  22,                                     !- Hour 2
  0,                                      !- Minute 2
  1,                                      !- Value Until Time 2
  24,                                     !- Hour 3
  0,                                      !- Minute 3
  0.05;                                   !- Value Until Time 3

OS:Schedule:Day,
  {b331e9af-4a08-49ee-8a7f-2df4f26fbe92}, !- Handle
  Medium Office Number of People Summer Design Day Schedule 1, !- Name
  {58852aa4-1ff9-45fe-958e-2979a7106720}, !- Schedule Type Limits Name
  ,                                       !- Interpolate to Timestep
  6,                                      !- Hour 1
  0,                                      !- Minute 1
  0,                                      !- Value Until Time 1
  22,                                     !- Hour 2
  0,                                      !- Minute 2
  1,                                      !- Value Until Time 2
  24,                                     !- Hour 3
  0,                                      !- Minute 3
  0.05;                                   !- Value Until Time 3

OS:Schedule:Rule,
  {0f1a9ca8-6fc0-428a-97ac-f8209c743ae4}, !- Handle
  Medium Office Number of People Schedule Weekdays Rule, !- Name
  {183f9a07-b434-4d26-8e44-034279932cb5}, !- Schedule Ruleset Name
  1,                                      !- Rule Order
  {c977e62f-718d-482f-aae3-f930fa1d550a}, !- Day Schedule Name
  ,                                       !- Apply Sunday
  Yes,                                    !- Apply Monday
  Yes,                                    !- Apply Tuesday
  Yes,                                    !- Apply Wednesday
  Yes,                                    !- Apply Thursday
  Yes;                                    !- Apply Friday

OS:Schedule:Day,
  {c977e62f-718d-482f-aae3-f930fa1d550a}, !- Handle
  Medium Office Number of People Weekdays Schedule, !- Name
  {58852aa4-1ff9-45fe-958e-2979a7106720}, !- Schedule Type Limits Name
  ,                                       !- Interpolate to Timestep
  6,                                      !- Hour 1
  0,                                      !- Minute 1
  0,                                      !- Value Until Time 1
  7,                                      !- Hour 2
  0,                                      !- Minute 2
  0.1,                                    !- Value Until Time 2
  8,                                      !- Hour 3
  0,                                      !- Minute 3
  0.2,                                    !- Value Until Time 3
  12,                                     !- Hour 4
  0,                                      !- Minute 4
  0.95,                                   !- Value Until Time 4
  13,                                     !- Hour 5
  0,                                      !- Minute 5
  0.5,                                    !- Value Until Time 5
  17,                                     !- Hour 6
  0,                                      !- Minute 6
  0.95,                                   !- Value Until Time 6
  18,                                     !- Hour 7
  0,                                      !- Minute 7
  0.7,                                    !- Value Until Time 7
  20,                                     !- Hour 8
  0,                                      !- Minute 8
  0.4,                                    !- Value Until Time 8
  22,                                     !- Hour 9
  0,                                      !- Minute 9
  0.1,                                    !- Value Until Time 9
  24,                                     !- Hour 10
  0,                                      !- Minute 10
  0.05;                                   !- Value Until Time 10

OS:Schedule:Rule,
  {c99f2161-1969-46da-888e-7b33d4364342}, !- Handle
  Medium Office Number of People Schedule Saturday Rule, !- Name
  {183f9a07-b434-4d26-8e44-034279932cb5}, !- Schedule Ruleset Name
  0,                                      !- Rule Order
  {db3b3d13-69ab-4bf5-b719-1de60fa3fe44}, !- Day Schedule Name
  ,                                       !- Apply Sunday
  ,                                       !- Apply Monday
  ,                                       !- Apply Tuesday
  ,                                       !- Apply Wednesday
  ,                                       !- Apply Thursday
  ,                                       !- Apply Friday
  Yes;                                    !- Apply Saturday

OS:Schedule:Day,
  {db3b3d13-69ab-4bf5-b719-1de60fa3fe44}, !- Handle
  Medium Office Number of People Saturday Schedule, !- Name
  {58852aa4-1ff9-45fe-958e-2979a7106720}, !- Schedule Type Limits Name
  ,                                       !- Interpolate to Timestep
  6,                                      !- Hour 1
  0,                                      !- Minute 1
  0,                                      !- Value Until Time 1
  8,                                      !- Hour 2
  0,                                      !- Minute 2
  0.1,                                    !- Value Until Time 2
  14,                                     !- Hour 3
  0,                                      !- Minute 3
  0.5,                                    !- Value Until Time 3
  17,                                     !- Hour 4
  0,                                      !- Minute 4
  0.1,                                    !- Value Until Time 4
  24,                                     !- Hour 5
  0,                                      !- Minute 5
  0;                                      !- Value Until Time 5

OS:ScheduleTypeLimits,
  {58852aa4-1ff9-45fe-958e-2979a7106720}, !- Handle
  Fractional,                             !- Name
  0,                                      !- Lower Limit Value
  1,                                      !- Upper Limit Value
  Continuous;                             !- Numeric Type

OS:Schedule:Ruleset,
  {b9279378-2a69-4742-9248-96eed0f193de}, !- Handle
  Medium Office People Activity Level Schedule, !- Name
  {4da189ac-9874-440f-b9bf-300413d5ba30}, !- Schedule Type Limits Name
  {cd9685e9-f52f-4111-9e8d-09531274ea19}; !- Default Day Schedule Name

OS:Schedule:Day,
  {cd9685e9-f52f-4111-9e8d-09531274ea19}, !- Handle
  Medium Office People Activity Level All Days Schedule, !- Name
  {4da189ac-9874-440f-b9bf-300413d5ba30}, !- Schedule Type Limits Name
  ,                                       !- Interpolate to Timestep
  24,                                     !- Hour 1
  0,                                      !- Minute 1
  120;                                    !- Value Until Time 1

OS:ScheduleTypeLimits,
  {4da189ac-9874-440f-b9bf-300413d5ba30}, !- Handle
  ActivityLevel,                          !- Name
  0,                                      !- Lower Limit Value
  ,                                       !- Upper Limit Value
  Continuous,                             !- Numeric Type
  ActivityLevel;                          !- Unit Type

OS:Schedule:Ruleset,
  {2b2d78c8-c50c-400e-90ab-f216adf9a627}, !- Handle
  Medium Office Lighting Schedule,        !- Name
  {58852aa4-1ff9-45fe-958e-2979a7106720}, !- Schedule Type Limits Name
  {deed174c-8a95-49df-80d8-838f110ff178}, !- Default Day Schedule Name
  {fb078e9c-c417-47d6-ba45-4e41a72ef128}, !- Summer Design Day Schedule Name
  {0fc270b9-7c70-4d1b-ab96-cb97756b8acc}; !- Winter Design Day Schedule Name

OS:Schedule:Day,
  {deed174c-8a95-49df-80d8-838f110ff178}, !- Handle
  Medium Office Lighting All Other Days Schedule, !- Name
  {58852aa4-1ff9-45fe-958e-2979a7106720}, !- Schedule Type Limits Name
  ,                                       !- Interpolate to Timestep
  24,                                     !- Hour 1
  0,                                      !- Minute 1
  0.05;                                   !- Value Until Time 1

OS:Schedule:Day,
  {82843d5a-6804-4470-9716-546717353df3}, !- Handle
  Medium Office Lighting Summer Design Day Schedule, !- Name
  ,                                       !- Schedule Type Limits Name
  ,                                       !- Interpolate to Timestep
  6,                                      !- Hour 1
  0,                                      !- Minute 1
  1,                                      !- Value Until Time 1
  24,                                     !- Hour 2
  0,                                      !- Minute 2
  0;                                      !- Value Until Time 2

OS:Schedule:Day,
  {fb078e9c-c417-47d6-ba45-4e41a72ef128}, !- Handle
  Medium Office Lighting Summer Design Day Schedule 1, !- Name
  {58852aa4-1ff9-45fe-958e-2979a7106720}, !- Schedule Type Limits Name
  ,                                       !- Interpolate to Timestep
  6,                                      !- Hour 1
  0,                                      !- Minute 1
  1,                                      !- Value Until Time 1
  24,                                     !- Hour 2
  0,                                      !- Minute 2
  0;                                      !- Value Until Time 2

OS:Schedule:Day,
  {f84fc153-a5fa-416c-b5dc-e8d1587ab6a7}, !- Handle
  Medium Office Lighting Winter Design Day Schedule, !- Name
  ,                                       !- Schedule Type Limits Name
  ,                                       !- Interpolate to Timestep
  24,                                     !- Hour 1
  0,                                      !- Minute 1
  0;                                      !- Value Until Time 1

OS:Schedule:Day,
  {0fc270b9-7c70-4d1b-ab96-cb97756b8acc}, !- Handle
  Medium Office Lighting Winter Design Day Schedule 1, !- Name
  {58852aa4-1ff9-45fe-958e-2979a7106720}, !- Schedule Type Limits Name
  ,                                       !- Interpolate to Timestep
  24,                                     !- Hour 1
  0,                                      !- Minute 1
  0;                                      !- Value Until Time 1

OS:Schedule:Rule,
  {30ff55bc-2fe5-492c-85c9-5713f95468e3}, !- Handle
  Medium Office Lighting Schedule Weekdays Rule, !- Name
  {2b2d78c8-c50c-400e-90ab-f216adf9a627}, !- Schedule Ruleset Name
  1,                                      !- Rule Order
  {e31a25c0-3e1f-4ac4-877c-bbfc5b20f435}, !- Day Schedule Name
  ,                                       !- Apply Sunday
  Yes,                                    !- Apply Monday
  Yes,                                    !- Apply Tuesday
  Yes,                                    !- Apply Wednesday
  Yes,                                    !- Apply Thursday
  Yes;                                    !- Apply Friday

OS:Schedule:Day,
  {e31a25c0-3e1f-4ac4-877c-bbfc5b20f435}, !- Handle
  Medium Office Lighting Weekdays Schedule, !- Name
  {58852aa4-1ff9-45fe-958e-2979a7106720}, !- Schedule Type Limits Name
  ,                                       !- Interpolate to Timestep
  5,                                      !- Hour 1
  0,                                      !- Minute 1
  0.05,                                   !- Value Until Time 1
  7,                                      !- Hour 2
  0,                                      !- Minute 2
  0.1,                                    !- Value Until Time 2
  8,                                      !- Hour 3
  0,                                      !- Minute 3
  0.3,                                    !- Value Until Time 3
  17,                                     !- Hour 4
  0,                                      !- Minute 4
  0.9,                                    !- Value Until Time 4
  18,                                     !- Hour 5
  0,                                      !- Minute 5
  0.7,                                    !- Value Until Time 5
  20,                                     !- Hour 6
  0,                                      !- Minute 6
  0.5,                                    !- Value Until Time 6
  22,                                     !- Hour 7
  0,                                      !- Minute 7
  0.3,                                    !- Value Until Time 7
  23,                                     !- Hour 8
  0,                                      !- Minute 8
  0.1,                                    !- Value Until Time 8
  24,                                     !- Hour 9
  0,                                      !- Minute 9
  0.05;                                   !- Value Until Time 9

OS:Schedule:Rule,
  {935d72a6-e6a5-4b8f-bcd8-2833e0325018}, !- Handle
  Medium Office Lighting Schedule Saturday Rule, !- Name
  {2b2d78c8-c50c-400e-90ab-f216adf9a627}, !- Schedule Ruleset Name
  0,                                      !- Rule Order
  {cfaaa83d-af77-4bed-9a35-365ce8bacef7}, !- Day Schedule Name
  ,                                       !- Apply Sunday
  ,                                       !- Apply Monday
  ,                                       !- Apply Tuesday
  ,                                       !- Apply Wednesday
  ,                                       !- Apply Thursday
  ,                                       !- Apply Friday
  Yes;                                    !- Apply Saturday

OS:Schedule:Day,
  {cfaaa83d-af77-4bed-9a35-365ce8bacef7}, !- Handle
  Medium Office Lighting Saturday Schedule, !- Name
  {58852aa4-1ff9-45fe-958e-2979a7106720}, !- Schedule Type Limits Name
  ,                                       !- Interpolate to Timestep
  6,                                      !- Hour 1
  0,                                      !- Minute 1
  0.05,                                   !- Value Until Time 1
  8,                                      !- Hour 2
  0,                                      !- Minute 2
  0.1,                                    !- Value Until Time 2
  14,                                     !- Hour 3
  0,                                      !- Minute 3
  0.5,                                    !- Value Until Time 3
  17,                                     !- Hour 4
  0,                                      !- Minute 4
  0.15,                                   !- Value Until Time 4
  24,                                     !- Hour 5
  0,                                      !- Minute 5
  0.05;                                   !- Value Until Time 5

OS:Schedule:Ruleset,
  {757989bd-48f0-4d7c-aa9e-8ad5b67dc43a}, !- Handle
  Medium Office Electric Equipment Schedule, !- Name
  {58852aa4-1ff9-45fe-958e-2979a7106720}, !- Schedule Type Limits Name
  {c4754b4a-3d00-4983-a096-98cd9645ee91}, !- Default Day Schedule Name
  {70a46858-e5ca-4a66-818b-00dcd11f7fa2}, !- Summer Design Day Schedule Name
  {fd0217c2-4352-42cb-8c9f-2b2747e3887c}; !- Winter Design Day Schedule Name

OS:Schedule:Day,
  {c4754b4a-3d00-4983-a096-98cd9645ee91}, !- Handle
  Medium Office Electric Equipment All Other Days Schedule, !- Name
  {58852aa4-1ff9-45fe-958e-2979a7106720}, !- Schedule Type Limits Name
  ,                                       !- Interpolate to Timestep
  24,                                     !- Hour 1
  0,                                      !- Minute 1
  0.3;                                    !- Value Until Time 1

OS:Schedule:Day,
  {0af64db5-0a14-44b5-b843-dfb73b813d93}, !- Handle
  Medium Office Electric Equipment Summer Design Day Schedule, !- Name
  ,                                       !- Schedule Type Limits Name
  ,                                       !- Interpolate to Timestep
  6,                                      !- Hour 1
  0,                                      !- Minute 1
  1,                                      !- Value Until Time 1
  24,                                     !- Hour 2
  0,                                      !- Minute 2
  0;                                      !- Value Until Time 2

OS:Schedule:Day,
  {70a46858-e5ca-4a66-818b-00dcd11f7fa2}, !- Handle
  Medium Office Electric Equipment Summer Design Day Schedule 1, !- Name
  {58852aa4-1ff9-45fe-958e-2979a7106720}, !- Schedule Type Limits Name
  ,                                       !- Interpolate to Timestep
  6,                                      !- Hour 1
  0,                                      !- Minute 1
  1,                                      !- Value Until Time 1
  24,                                     !- Hour 2
  0,                                      !- Minute 2
  0;                                      !- Value Until Time 2

OS:Schedule:Day,
  {61700d5e-d0ea-409e-90d0-ebb03f07b40e}, !- Handle
  Medium Office Electric Equipment Winter Design Day Schedule, !- Name
  ,                                       !- Schedule Type Limits Name
  ,                                       !- Interpolate to Timestep
  24,                                     !- Hour 1
  0,                                      !- Minute 1
  0;                                      !- Value Until Time 1

OS:Schedule:Day,
  {fd0217c2-4352-42cb-8c9f-2b2747e3887c}, !- Handle
  Medium Office Electric Equipment Winter Design Day Schedule 1, !- Name
  {58852aa4-1ff9-45fe-958e-2979a7106720}, !- Schedule Type Limits Name
  ,                                       !- Interpolate to Timestep
  24,                                     !- Hour 1
  0,                                      !- Minute 1
  0;                                      !- Value Until Time 1

OS:Schedule:Rule,
  {439a7081-92d9-4651-ae21-972544f86605}, !- Handle
  Medium Office Electric Equipment Schedule Weekdays Rule, !- Name
  {757989bd-48f0-4d7c-aa9e-8ad5b67dc43a}, !- Schedule Ruleset Name
  1,                                      !- Rule Order
  {4d3b934b-4369-4581-aed1-8fdf14fdfb87}, !- Day Schedule Name
  ,                                       !- Apply Sunday
  Yes,                                    !- Apply Monday
  Yes,                                    !- Apply Tuesday
  Yes,                                    !- Apply Wednesday
  Yes,                                    !- Apply Thursday
  Yes;                                    !- Apply Friday

OS:Schedule:Day,
  {4d3b934b-4369-4581-aed1-8fdf14fdfb87}, !- Handle
  Medium Office Electric Equipment Weekdays Schedule, !- Name
  {58852aa4-1ff9-45fe-958e-2979a7106720}, !- Schedule Type Limits Name
  ,                                       !- Interpolate to Timestep
  8,                                      !- Hour 1
  0,                                      !- Minute 1
  0.4,                                    !- Value Until Time 1
  12,                                     !- Hour 2
  0,                                      !- Minute 2
  0.9,                                    !- Value Until Time 2
  13,                                     !- Hour 3
  0,                                      !- Minute 3
  0.8,                                    !- Value Until Time 3
  17,                                     !- Hour 4
  0,                                      !- Minute 4
  0.9,                                    !- Value Until Time 4
  18,                                     !- Hour 5
  0,                                      !- Minute 5
  0.8,                                    !- Value Until Time 5
  20,                                     !- Hour 6