
OS:Version,
  {9f35aa94-e0f2-469a-ad8a-9536fed84e6a}, !- Handle
  1.11.4;                                 !- Version Identifier

OS:SimulationControl,
  {023107f2-9f5b-4b6f-a718-3054c580356e}, !- Handle
  Yes,                                    !- Do Zone Sizing Calculation
  Yes,                                    !- Do System Sizing Calculation
  ,                                       !- Do Plant Sizing Calculation
  No,                                     !- Run Simulation for Sizing Periods
  Yes;                                    !- Run Simulation for Weather File Run Periods

OS:Timestep,
  {8e31c85c-d656-4597-aab5-291acfe9212f}, !- Handle
  6;                                      !- Number of Timesteps per Hour

OS:RunPeriod,
  {abc1b2e0-48cf-4864-a787-b747bf43e245}, !- Handle
  Run Period 1,                           !- Name
  1,                                      !- Begin Month
  1,                                      !- Begin Day of Month
  12,                                     !- End Month
  31,                                     !- End Day of Month
  No,                                     !- Use Weather File Holidays and Special Days
  No,                                     !- Use Weather File Daylight Saving Period
  No,                                     !- Apply Weekend Holiday Rule
  Yes,                                    !- Use Weather File Rain Indicators
  Yes,                                    !- Use Weather File Snow Indicators
  1;                                      !- Number of Times Runperiod to be Repeated

OS:SurfaceConvectionAlgorithm:Inside,
  {f81fcb60-b21e-4ee4-aff8-135bd7947548}, !- Handle
  TARP;                                   !- Algorithm

OS:SurfaceConvectionAlgorithm:Outside,
  {acb0cde5-b785-451d-9ca8-6d91ad9e09dd}, !- Handle
  DOE-2;                                  !- Algorithm

OS:HeatBalanceAlgorithm,
  {cbc8aa34-7864-46ac-9f77-29612f59c64e}, !- Handle
  ConductionTransferFunction,             !- Algorithm
  200;                                    !- Surface Temperature Upper Limit {C}

OS:ZoneAirHeatBalanceAlgorithm,
  {c5f0fe52-f510-4ef7-acdd-05c7bd54a82e}, !- Handle
  ThirdOrderBackwardDifference;           !- Algorithm

OS:ConvergenceLimits,
  {6a5d0eeb-019e-43e1-a3ac-5cf70a05d271}, !- Handle
  1;                                      !- Minimum System Timestep {minutes}

OS:ShadowCalculation,
  {71247128-c682-447a-86f9-8bf5940a5d77}, !- Handle
  20,                                     !- Calculation Frequency
  15000;                                  !- Maximum Figures in Shadow Overlap Calculations

OS:Site,
  {1895a524-44ce-46e6-9aa5-d9853e17aeda}, !- Handle
  Site 1,                                 !- Name
  41.77,                                  !- Latitude {deg}
  -87.75,                                 !- Longitude {deg}
  -6,                                     !- Time Zone {hr}
  190,                                    !- Elevation {m}
  ;                                       !- Terrain

OS:Site:GroundTemperature:BuildingSurface,
  {ca8ba444-ec09-4002-97ec-32311693c931}, !- Handle
  19.527,                                 !- January Ground Temperature {C}
  19.502,                                 !- February Ground Temperature {C}
  19.536,                                 !- March Ground Temperature {C}
  19.598,                                 !- April Ground Temperature {C}
  20.002,                                 !- May Ground Temperature {C}
  21.64,                                  !- June Ground Temperature {C}
  22.225,                                 !- July Ground Temperature {C}
  22.375,                                 !- August Ground Temperature {C}
  21.449,                                 !- September Ground Temperature {C}
  20.121,                                 !- October Ground Temperature {C}
  19.802,                                 !- November Ground Temperature {C}
  19.633;                                 !- December Ground Temperature {C}

OS:Site:GroundTemperature:Deep,
  {cca4046d-b268-4a30-99a5-95b9f0169c5c}, !- Handle
  19.527,                                 !- January Deep Ground Temperature {C}
  19.502,                                 !- February Deep Ground Temperature {C}
  19.536,                                 !- March Deep Ground Temperature {C}
  19.598,                                 !- April Deep Ground Temperature {C}
  20.002,                                 !- May Deep Ground Temperature {C}
  21.64,                                  !- June Deep Ground Temperature {C}
  22.225,                                 !- July Deep Ground Temperature {C}
  22.375,                                 !- August Deep Ground Temperature {C}
  21.449,                                 !- September Deep Ground Temperature {C}
  20.121,                                 !- October Deep Ground Temperature {C}
  19.802,                                 !- November Deep Ground Temperature {C}
  19.633;                                 !- December Deep Ground Temperature {C}

OS:Site:WaterMainsTemperature,
  {cdff0759-cb36-4cd7-8a62-00654ffd6425}, !- Handle
  Correlation,                            !- Calculation Method
  ,                                       !- Temperature Schedule Name
  9.69,                                   !- Annual Average Outdoor Air Temperature {C}
  28.1;                                   !- Maximum Difference In Monthly Average Outdoor Air Temperatures {deltaC}

OS:SizingPeriod:DesignDay,
  {6b37d044-52c2-4ac7-b85d-4830c625251e}, !- Handle
  Sizing Period Design Day 1,             !- Name
  -20.6,                                  !- Maximum Dry-Bulb Temperature {C}
  0,                                      !- Daily Dry-Bulb Temperature Range {deltaC}
  -20.6,                                  !- Humidity Indicating Conditions at Maximum Dry-Bulb
  99063,                                  !- Barometric Pressure {Pa}
  4.9,                                    !- Wind Speed {m/s}
  270,                                    !- Wind Direction {deg}
  0,                                      !- Sky Clearness
  0,                                      !- Rain Indicator
  0,                                      !- Snow Indicator
  21,                                     !- Day of Month
  1,                                      !- Month
  WinterDesignDay,                        !- Day Type
  0,                                      !- Daylight Saving Time Indicator
  WetBulb,                                !- Humidity Indicating Type
  ,                                       !- Humidity Indicating Day Schedule Name
  DefaultMultipliers,                     !- Dry-Bulb Temperature Range Modifier Type
  ,                                       !- Dry-Bulb Temperature Range Modifier Schedule Name
  AshraeClearSky;                         !- Solar Model Indicator

OS:SizingPeriod:DesignDay,
  {0706f4e6-3803-44fc-ba30-dc32cd40bb10}, !- Handle
  Sizing Period Design Day 2,             !- Name
  33.2,                                   !- Maximum Dry-Bulb Temperature {C}
  10.7,                                   !- Daily Dry-Bulb Temperature Range {deltaC}
  23.8,                                   !- Humidity Indicating Conditions at Maximum Dry-Bulb
  99063,                                  !- Barometric Pressure {Pa}
  5.3,                                    !- Wind Speed {m/s}
  230,                                    !- Wind Direction {deg}
  1,                                      !- Sky Clearness
  0,                                      !- Rain Indicator
  0,                                      !- Snow Indicator
  21,                                     !- Day of Month
  7,                                      !- Month
  SummerDesignDay,                        !- Day Type
  0,                                      !- Daylight Saving Time Indicator
  WetBulb,                                !- Humidity Indicating Type
  ,                                       !- Humidity Indicating Day Schedule Name
  DefaultMultipliers,                     !- Dry-Bulb Temperature Range Modifier Type
  ,                                       !- Dry-Bulb Temperature Range Modifier Schedule Name
  AshraeClearSky;                         !- Solar Model Indicator

OS:ScheduleTypeLimits,
  {6d6457c5-1b5c-4858-9a83-3050f59d7e29}, !- Handle
  Temperature,                            !- Name
  -60,                                    !- Lower Limit Value
  200,                                    !- Upper Limit Value
  CONTINUOUS,                             !- Numeric Type
  Temperature;                            !- Unit Type

OS:DefaultScheduleSet,
  {702ef4a2-654d-4af1-9b81-da26e5961538}, !- Handle
  Default Schedules,                      !- Name
  ,                                       !- Hours of Operation Schedule Name
  {f98f406c-7ec9-45b1-8428-9ec7a61fc974}, !- Number of People Schedule Name
  {410e7aeb-a4f1-4e42-b33b-a7e0b1ebd935}, !- People Activity Level Schedule Name
  {68f205b9-0494-4b3f-8f62-a548ab0703fd}, !- Lighting Schedule Name
  {0eb62d3e-db9c-43bb-9a74-c1d14b717818}, !- Electric Equipment Schedule Name
  {59c79071-13d5-428b-9f1c-3e3bacc778a8}, !- Gas Equipment Schedule Name
  {61dacd46-96e0-45c8-bdc6-766a01fd6e2c}, !- Hot Water Equipment Schedule Name
  {cb300c71-ae23-44b1-b50a-93df3a9bc241}, !- Infiltration Schedule Name
  ,                                       !- Steam Equipment Schedule Name
  ;                                       !- Other Equipment Schedule Name

OS:Schedule:Ruleset,
  {f98f406c-7ec9-45b1-8428-9ec7a61fc974}, !- Handle
  Medium Office Number of People Schedule, !- Name
  {95136353-896a-4ad4-8e5e-44262efacb69}, !- Schedule Type Limits Name
  {84e8c679-3169-453c-8ad1-90b6bf65c21c}, !- Default Day Schedule Name
  {ba14b979-936f-4e77-8d1a-1278f8341c1a}; !- Summer Design Day Schedule Name

OS:Schedule:Day,
  {84e8c679-3169-453c-8ad1-90b6bf65c21c}, !- Handle
  Medium Office Number of People All Other Days Schedule, !- Name
  {95136353-896a-4ad4-8e5e-44262efacb69}, !- Schedule Type Limits Name
  ,                                       !- Interpolate to Timestep
  24,                                     !- Hour 1
  0,                                      !- Minute 1
  0;                                      !- Value Until Time 1

OS:Schedule:Day,
  {266a576f-3d8f-4762-86c9-6a5c1f3698d5}, !- Handle
  Medium Office Number of People Summer Design Day Schedule, !- Name
  ,                                       !- Schedule Type Limits Name
  ,                                       !- Interpolate to Timestep
  6,                                      !- Hour 1
  0,                                      !- Minute 1
  0,                                      !- Value Until Time 1
  22,                                     !- Hour 2
  0,                                      !- Minute 2
  1,                                      !- Value Until Time 2
  24,                                     !- Hour 3
  0,                                      !- Minute 3
  0.05;                                   !- Value Until Time 3

OS:Schedule:Day,
  {ba14b979-936f-4e77-8d1a-1278f8341c1a}, !- Handle
  Medium Office Number of People Summer Design Day Schedule 1, !- Name
  {95136353-896a-4ad4-8e5e-44262efacb69}, !- Schedule Type Limits Name
  ,                                       !- Interpolate to Timestep
  6,                                      !- Hour 1
  0,                                      !- Minute 1
  0,                                      !- Value Until Time 1
  22,                                     !- Hour 2
  0,                                      !- Minute 2
  1,                                      !- Value Until Time 2
  24,                                     !- Hour 3
  0,                                      !- Minute 3
  0.05;                                   !- Value Until Time 3

OS:Schedule:Rule,
  {0c0bd33a-11ed-4d1b-abf9-e04de326f08c}, !- Handle
  Medium Office Number of People Schedule Weekdays Rule, !- Name
  {f98f406c-7ec9-45b1-8428-9ec7a61fc974}, !- Schedule Ruleset Name
  1,                                      !- Rule Order
  {7d2fcb0f-f7dd-4332-aa6b-6b949c832fbf}, !- Day Schedule Name
  ,                                       !- Apply Sunday
  Yes,                                    !- Apply Monday
  Yes,                                    !- Apply Tuesday
  Yes,                                    !- Apply Wednesday
  Yes,                                    !- Apply Thursday
  Yes;                                    !- Apply Friday

OS:Schedule:Day,
  {7d2fcb0f-f7dd-4332-aa6b-6b949c832fbf}, !- Handle
  Medium Office Number of People Weekdays Schedule, !- Name
  {95136353-896a-4ad4-8e5e-44262efacb69}, !- Schedule Type Limits Name
  ,                                       !- Interpolate to Timestep
  6,                                      !- Hour 1
  0,                                      !- Minute 1
  0,                                      !- Value Until Time 1
  7,                                      !- Hour 2
  0,                                      !- Minute 2
  0.1,                                    !- Value Until Time 2
  8,                                      !- Hour 3
  0,                                      !- Minute 3
  0.2,                                    !- Value Until Time 3
  12,                                     !- Hour 4
  0,                                      !- Minute 4
  0.95,                                   !- Value Until Time 4
  13,                                     !- Hour 5
  0,                                      !- Minute 5
  0.5,                                    !- Value Until Time 5
  17,                                     !- Hour 6
  0,                                      !- Minute 6
  0.95,                                   !- Value Until Time 6
  18,                                     !- Hour 7
  0,                                      !- Minute 7
  0.7,                                    !- Value Until Time 7
  20,                                     !- Hour 8
  0,                                      !- Minute 8
  0.4,                                    !- Value Until Time 8
  22,                                     !- Hour 9
  0,                                      !- Minute 9
  0.1,                                    !- Value Until Time 9
  24,                                     !- Hour 10
  0,                                      !- Minute 10
  0.05;                                   !- Value Until Time 10

OS:Schedule:Rule,
  {af87fda5-2c02-42b9-98b3-5836b11ba022}, !- Handle
  Medium Office Number of People Schedule Saturday Rule, !- Name
  {f98f406c-7ec9-45b1-8428-9ec7a61fc974}, !- Schedule Ruleset Name
  0,                                      !- Rule Order
  {0be054a8-69cf-4e6d-97cc-fd04649ffefc}, !- Day Schedule Name
  ,                                       !- Apply Sunday
  ,                                       !- Apply Monday
  ,                                       !- Apply Tuesday
  ,                                       !- Apply Wednesday
  ,                                       !- Apply Thursday
  ,                                       !- Apply Friday
  Yes;                                    !- Apply Saturday

OS:Schedule:Day,
  {0be054a8-69cf-4e6d-97cc-fd04649ffefc}, !- Handle
  Medium Office Number of People Saturday Schedule, !- Name
  {95136353-896a-4ad4-8e5e-44262efacb69}, !- Schedule Type Limits Name
  ,                                       !- Interpolate to Timestep
  6,                                      !- Hour 1
  0,                                      !- Minute 1
  0,                                      !- Value Until Time 1
  8,                                      !- Hour 2
  0,                                      !- Minute 2
  0.1,                                    !- Value Until Time 2
  14,                                     !- Hour 3
  0,                                      !- Minute 3
  0.5,                                    !- Value Until Time 3
  17,                                     !- Hour 4
  0,                                      !- Minute 4
  0.1,                                    !- Value Until Time 4
  24,                                     !- Hour 5
  0,                                      !- Minute 5
  0;                                      !- Value Until Time 5

OS:ScheduleTypeLimits,
  {95136353-896a-4ad4-8e5e-44262efacb69}, !- Handle
  Fractional,                             !- Name
  0,                                      !- Lower Limit Value
  1,                                      !- Upper Limit Value
  Continuous;                             !- Numeric Type

OS:Schedule:Ruleset,
  {410e7aeb-a4f1-4e42-b33b-a7e0b1ebd935}, !- Handle
  Medium Office People Activity Level Schedule, !- Name
  {c2e0e490-7061-410e-a5b7-8d5a63f1ed06}, !- Schedule Type Limits Name
  {8983d416-17e5-4526-a207-cfad1dbd0d06}; !- Default Day Schedule Name

OS:Schedule:Day,
  {8983d416-17e5-4526-a207-cfad1dbd0d06}, !- Handle
  Medium Office People Activity Level All Days Schedule, !- Name
  {c2e0e490-7061-410e-a5b7-8d5a63f1ed06}, !- Schedule Type Limits Name
  ,                                       !- Interpolate to Timestep
  24,                                     !- Hour 1
  0,                                      !- Minute 1
  120;                                    !- Value Until Time 1

OS:ScheduleTypeLimits,
  {c2e0e490-7061-410e-a5b7-8d5a63f1ed06}, !- Handle
  ActivityLevel,                          !- Name
  0,                                      !- Lower Limit Value
  ,                                       !- Upper Limit Value
  Continuous,                             !- Numeric Type
  ActivityLevel;                          !- Unit Type

OS:Schedule:Ruleset,
  {68f205b9-0494-4b3f-8f62-a548ab0703fd}, !- Handle
  Medium Office Lighting Schedule,        !- Name
  {95136353-896a-4ad4-8e5e-44262efacb69}, !- Schedule Type Limits Name
  {a1159f43-6aa4-4d28-93d0-9ce37e11cd91}, !- Default Day Schedule Name
  {624bfdb1-e796-4daf-bb3c-4dab3465a48d}, !- Summer Design Day Schedule Name
  {fae4c54d-cf37-4856-a6de-f98a36632bbf}; !- Winter Design Day Schedule Name

OS:Schedule:Day,
  {a1159f43-6aa4-4d28-93d0-9ce37e11cd91}, !- Handle
  Medium Office Lighting All Other Days Schedule, !- Name
  {95136353-896a-4ad4-8e5e-44262efacb69}, !- Schedule Type Limits Name
  ,                                       !- Interpolate to Timestep
  24,                                     !- Hour 1
  0,                                      !- Minute 1
  0.05;                                   !- Value Until Time 1

OS:Schedule:Day,
  {22d3c555-2e02-415b-819e-3e54f55bb77a}, !- Handle
  Medium Office Lighting Summer Design Day Schedule, !- Name
  ,                                       !- Schedule Type Limits Name
  ,                                       !- Interpolate to Timestep
  6,                                      !- Hour 1
  0,                                      !- Minute 1
  1,                                      !- Value Until Time 1
  24,                                     !- Hour 2
  0,                                      !- Minute 2
  0;                                      !- Value Until Time 2

OS:Schedule:Day,
  {624bfdb1-e796-4daf-bb3c-4dab3465a48d}, !- Handle
  Medium Office Lighting Summer Design Day Schedule 1, !- Name
  {95136353-896a-4ad4-8e5e-44262efacb69}, !- Schedule Type Limits Name
  ,                                       !- Interpolate to Timestep
  6,                                      !- Hour 1
  0,                                      !- Minute 1
  1,                                      !- Value Until Time 1
  24,                                     !- Hour 2
  0,                                      !- Minute 2
  0;                                      !- Value Until Time 2

OS:Schedule:Day,
  {098a1fd5-1459-48a3-a852-e2ef0e9d3bde}, !- Handle
  Medium Office Lighting Winter Design Day Schedule, !- Name
  ,                                       !- Schedule Type Limits Name
  ,                                       !- Interpolate to Timestep
  24,                                     !- Hour 1
  0,                                      !- Minute 1
  0;                                      !- Value Until Time 1

OS:Schedule:Day,
  {fae4c54d-cf37-4856-a6de-f98a36632bbf}, !- Handle
  Medium Office Lighting Winter Design Day Schedule 1, !- Name
  {95136353-896a-4ad4-8e5e-44262efacb69}, !- Schedule Type Limits Name
  ,                                       !- Interpolate to Timestep
  24,                                     !- Hour 1
  0,                                      !- Minute 1
  0;                                      !- Value Until Time 1

OS:Schedule:Rule,
  {100b1a3a-d58d-48bd-ac46-111a4bfbfe14}, !- Handle
  Medium Office Lighting Schedule Weekdays Rule, !- Name
  {68f205b9-0494-4b3f-8f62-a548ab0703fd}, !- Schedule Ruleset Name
  1,                                      !- Rule Order
  {85496095-36d4-4914-977d-3e52ba8e6532}, !- Day Schedule Name
  ,                                       !- Apply Sunday
  Yes,                                    !- Apply Monday
  Yes,                                    !- Apply Tuesday
  Yes,                                    !- Apply Wednesday
  Yes,                                    !- Apply Thursday
  Yes;                                    !- Apply Friday

OS:Schedule:Day,
  {85496095-36d4-4914-977d-3e52ba8e6532}, !- Handle
  Medium Office Lighting Weekdays Schedule, !- Name
  {95136353-896a-4ad4-8e5e-44262efacb69}, !- Schedule Type Limits Name
  ,                                       !- Interpolate to Timestep
  5,                                      !- Hour 1
  0,                                      !- Minute 1
  0.05,                                   !- Value Until Time 1
  7,                                      !- Hour 2
  0,                                      !- Minute 2
  0.1,                                    !- Value Until Time 2
  8,                                      !- Hour 3
  0,                                      !- Minute 3
  0.3,                                    !- Value Until Time 3
  17,                                     !- Hour 4
  0,                                      !- Minute 4
  0.9,                                    !- Value Until Time 4
  18,                                     !- Hour 5
  0,                                      !- Minute 5
  0.7,                                    !- Value Until Time 5
  20,                                     !- Hour 6
  0,                                      !- Minute 6
  0.5,                                    !- Value Until Time 6
  22,                                     !- Hour 7
  0,                                      !- Minute 7
  0.3,                                    !- Value Until Time 7
  23,                                     !- Hour 8
  0,                                      !- Minute 8
  0.1,                                    !- Value Until Time 8
  24,                                     !- Hour 9
  0,                                      !- Minute 9
  0.05;                                   !- Value Until Time 9

OS:Schedule:Rule,
  {41d7aab5-c5a9-49a8-a4ad-01ba1391286c}, !- Handle
  Medium Office Lighting Schedule Saturday Rule, !- Name
  {68f205b9-0494-4b3f-8f62-a548ab0703fd}, !- Schedule Ruleset Name
  0,                                      !- Rule Order
  {1d7084c8-2dcd-4aa9-a0e9-b6b4309e2c21}, !- Day Schedule Name
  ,                                       !- Apply Sunday
  ,                                       !- Apply Monday
  ,                                       !- Apply Tuesday
  ,                                       !- Apply Wednesday
  ,                                       !- Apply Thursday
  ,                                       !- Apply Friday
  Yes;                                    !- Apply Saturday

OS:Schedule:Day,
  {1d7084c8-2dcd-4aa9-a0e9-b6b4309e2c21}, !- Handle
  Medium Office Lighting Saturday Schedule, !- Name
  {95136353-896a-4ad4-8e5e-44262efacb69}, !- Schedule Type Limits Name
  ,                                       !- Interpolate to Timestep
  6,                                      !- Hour 1
  0,                                      !- Minute 1
  0.05,                                   !- Value Until Time 1
  8,                                      !- Hour 2
  0,                                      !- Minute 2
  0.1,                                    !- Value Until Time 2
  14,                                     !- Hour 3
  0,                                      !- Minute 3
  0.5,                                    !- Value Until Time 3
  17,                                     !- Hour 4
  0,                                      !- Minute 4
  0.15,                                   !- Value Until Time 4
  24,                                     !- Hour 5
  0,                                      !- Minute 5
  0.05;                                   !- Value Until Time 5

OS:Schedule:Ruleset,
  {0eb62d3e-db9c-43bb-9a74-c1d14b717818}, !- Handle
  Medium Office Electric Equipment Schedule, !- Name
  {95136353-896a-4ad4-8e5e-44262efacb69}, !- Schedule Type Limits Name
  {6b5055b0-6d05-485a-bd03-7f7d659dc401}, !- Default Day Schedule Name
  {4d83cf87-e552-4ebf-90ac-742653188579}, !- Summer Design Day Schedule Name
  {474e7bb9-f5d5-40b8-98fa-b6c3942502fe}; !- Winter Design Day Schedule Name

OS:Schedule:Day,
  {6b5055b0-6d05-485a-bd03-7f7d659dc401}, !- Handle
  Medium Office Electric Equipment All Other Days Schedule, !- Name
  {95136353-896a-4ad4-8e5e-44262efacb69}, !- Schedule Type Limits Name
  ,                                       !- Interpolate to Timestep
  24,                                     !- Hour 1
  0,                                      !- Minute 1
  0.3;                                    !- Value Until Time 1

OS:Schedule:Day,
  {f32e733f-43a8-4cc2-a0d6-f6fd0d741609}, !- Handle
  Medium Office Electric Equipment Summer Design Day Schedule, !- Name
  ,                                       !- Schedule Type Limits Name
  ,                                       !- Interpolate to Timestep
  6,                                      !- Hour 1
  0,                                      !- Minute 1
  1,                                      !- Value Until Time 1
  24,                                     !- Hour 2
  0,                                      !- Minute 2
  0;                                      !- Value Until Time 2

OS:Schedule:Day,
  {4d83cf87-e552-4ebf-90ac-742653188579}, !- Handle
  Medium Office Electric Equipment Summer Design Day Schedule 1, !- Name
  {95136353-896a-4ad4-8e5e-44262efacb69}, !- Schedule Type Limits Name
  ,                                       !- Interpolate to Timestep
  6,                                      !- Hour 1
  0,                                      !- Minute 1
  1,                                      !- Value Until Time 1
  24,                                     !- Hour 2
  0,                                      !- Minute 2
  0;                                      !- Value Until Time 2

OS:Schedule:Day,
  {d5e8c736-6acb-4f60-94f9-cb7dfbe244b2}, !- Handle
  Medium Office Electric Equipment Winter Design Day Schedule, !- Name
  ,                                       !- Schedule Type Limits Name
  ,                                       !- Interpolate to Timestep
  24,                                     !- Hour 1
  0,                                      !- Minute 1
  0;                                      !- Value Until Time 1

OS:Schedule:Day,
  {474e7bb9-f5d5-40b8-98fa-b6c3942502fe}, !- Handle
  Medium Office Electric Equipment Winter Design Day Schedule 1, !- Name
  {95136353-896a-4ad4-8e5e-44262efacb69}, !- Schedule Type Limits Name
  ,                                       !- Interpolate to Timestep
  24,                                     !- Hour 1
  0,                                      !- Minute 1
  0;                                      !- Value Until Time 1

OS:Schedule:Rule,
  {f3afd38c-1cb1-48c3-bd3f-5373e95fb08c}, !- Handle
  Medium Office Electric Equipment Schedule Weekdays Rule, !- Name
  {0eb62d3e-db9c-43bb-9a74-c1d14b717818}, !- Schedule Ruleset Name
  1,                                      !- Rule Order
  {d1b7f25c-6e66-46a7-9266-e3792fd163e9}, !- Day Schedule Name
  ,                                       !- Apply Sunday
  Yes,                                    !- Apply Monday
  Yes,                                    !- Apply Tuesday
  Yes,                                    !- Apply Wednesday
  Yes,                                    !- Apply Thursday
  Yes;                                    !- Apply Friday

OS:Schedule:Day,
  {d1b7f25c-6e66-46a7-9266-e3792fd163e9}, !- Handle
  Medium Office Electric Equipment Weekdays Schedule, !- Name
  {95136353-896a-4ad4-8e5e-44262efacb69}, !- Schedule Type Limits Name
  ,                                       !- Interpolate to Timestep
  8,                                      !- Hour 1
  0,                                      !- Minute 1
  0.4,                                    !- Value Until Time 1
  12,                                     !- Hour 2
  0,                                      !- Minute 2
  0.9,                                    !- Value Until Time 2
  13,                                     !- Hour 3
  0,                                      !- Minute 3
  0.8,                                    !- Value Until Time 3
  17,                                     !- Hour 4
  0,                                      !- Minute 4
  0.9,                                    !- Value Until Time 4
  18,                                     !- Hour 5
  0,                                      !- Minute 5
  0.8,                                    !- Value Until Time 5
  20,                                     !- Hour 6