
OS:Version,
  {14b034c9-d1e4-4384-9ab7-fdac22ad5f84}, !- Handle
  1.11.4;                                 !- Version Identifier

OS:Construction,
  {0cace899-48a1-4533-9ef7-ac9c85b3ccec}, !- Handle
  Slab,                                   !- Name
  ,                                       !- Surface Rendering Name
  {f2f4624a-4a2c-4566-a784-aa7b43f20b45}, !- Layer 1
  {7fb79027-6904-454b-8d89-d64d891b02ef}; !- Layer 2

OS:Material,
  {f2f4624a-4a2c-4566-a784-aa7b43f20b45}, !- Handle
  MAT-CC05 8 HW CONCRETE,                 !- Name
  Rough,                                  !- Roughness
  0.2032,                                 !- Thickness {m}
  1.311,                                  !- Conductivity {W/m-K}
  2240,                                   !- Density {kg/m3}
  836.8,                                  !- Specific Heat {J/kg-K}
  0.9,                                    !- Thermal Absorptance
  0.7,                                    !- Solar Absorptance
  0.7;                                    !- Visible Absorptance

OS:Material:NoMass,
  {7fb79027-6904-454b-8d89-d64d891b02ef}, !- Handle
  CP02 CARPET PAD,                        !- Name
  VeryRough,                              !- Roughness
  0.2165,                                 !- Thermal Resistance {m2-K/W}
  0.9,                                    !- Thermal Absorptance
  0.7,                                    !- Solar Absorptance
  0.8;                                    !- Visible Absorptance

OS:ComponentData,
  {3b0dc12c-55aa-48ca-af2a-baf8fa3a7013}, !- Handle
  Component Data 1,                       !- Name
  {c902eca7-470a-4f34-a2e3-e466a5323ce6}, !- UUID
  {bce28b4c-9575-409b-a85b-7932601f0aad}, !- Version UUID
  1464377388,                             !- Creation Timestamp
  1464377388,                             !- Version Timestamp
  {0cace899-48a1-4533-9ef7-ac9c85b3ccec}, !- Name of Object 1
  {f2f4624a-4a2c-4566-a784-aa7b43f20b45}, !- Name of Object 2
  {7fb79027-6904-454b-8d89-d64d891b02ef}; !- Name of Object 3

