
OS:Version,
  {9fcd8fd4-1ecb-49d1-afc1-fcc581aef3a4}, !- Handle
  1.2.2;                                  !- Version Identifier

OS:SimulationControl,
  {918d9994-9532-446f-b8ce-b04fea1898ba}, !- Handle
  Yes,                                    !- Do Zone Sizing Calculation
  Yes,                                    !- Do System Sizing Calculation
  ,                                       !- Do Plant Sizing Calculation
  No,                                     !- Run Simulation for Sizing Periods
  Yes;                                    !- Run Simulation for Weather File Run Periods

OS:Timestep,
  {8df58d2b-55ee-476a-813c-21cb93cc331f}, !- Handle
  6;                                      !- Number of Timesteps per Hour

OS:RunPeriod,
  {7102b185-5237-44ff-9c92-6a5001c7802b}, !- Handle
  Run Period 1,                           !- Name
  1,                                      !- Begin Month
  1,                                      !- Begin Day of Month
  12,                                     !- End Month
  31,                                     !- End Day of Month
  No,                                     !- Use Weather File Holidays and Special Days
  No,                                     !- Use Weather File Daylight Saving Period
  No,                                     !- Apply Weekend Holiday Rule
  Yes,                                    !- Use Weather File Rain Indicators
  Yes,                                    !- Use Weather File Snow Indicators
  1;                                      !- Number of Times Runperiod to be Repeated

OS:SurfaceConvectionAlgorithm:Inside,
  {f25d94ee-2174-47fc-a8ce-09c1e63e0821}, !- Handle
  TARP;                                   !- Algorithm

OS:SurfaceConvectionAlgorithm:Outside,
  {fcc3cd18-0e85-4202-9280-6e96df918a03}, !- Handle
  DOE-2;                                  !- Algorithm

OS:HeatBalanceAlgorithm,
  {650ad17e-f7e4-485e-9a0d-07ed84cdbfaf}, !- Handle
  ConductionTransferFunction,             !- Algorithm
  200;                                    !- Surface Temperature Upper Limit {F}

OS:ZoneAirHeatBalanceAlgorithm,
  {52ae1236-85e2-430c-b08c-85347798f0eb}, !- Handle
  AnalyticalSolution;                     !- Algorithm

OS:ConvergenceLimits,
  {1800eb02-bb73-408d-beec-3c3c56e7b3cd}; !- Handle

OS:ShadowCalculation,
  {bc6c20ab-4440-46bb-8e87-5193030fc648}, !- Handle
  7,                                      !- Calculation Frequency
  15000;                                  !- Maximum Figures in Shadow Overlap Calculations

OS:Site,
  {cb9ef865-55e5-44bb-b8a8-79a4375e9870}, !- Handle
  Site 1,                                 !- Name
  41.77,                                  !- Latitude {deg}
  -87.75,                                 !- Longitude {deg}
  -6,                                     !- Time Zone {hr}
  190,                                    !- Elevation {m}
  ;                                       !- Terrain

OS:Site:GroundTemperature:BuildingSurface,
  {38d8597f-3055-40ff-ac41-6177863a6fcf}, !- Handle
  19.527,                                 !- January Ground Temperature {C}
  19.502,                                 !- February Ground Temperature {C}
  19.536,                                 !- March Ground Temperature {C}
  19.598,                                 !- April Ground Temperature {C}
  20.002,                                 !- May Ground Temperature {C}
  21.64,                                  !- June Ground Temperature {C}
  22.225,                                 !- July Ground Temperature {C}
  22.375,                                 !- August Ground Temperature {C}
  21.449,                                 !- September Ground Temperature {C}
  20.121,                                 !- October Ground Temperature {C}
  19.802,                                 !- November Ground Temperature {C}
  19.633;                                 !- December Ground Temperature {C}

OS:Site:WaterMainsTemperature,
  {b18b4303-6335-41ee-8546-9835c07dcf28}, !- Handle
  Correlation,                            !- Calculation Method
  ,                                       !- Temperature Schedule Name
  9.69,                                   !- Annual Average Outdoor Air Temperature {C}
  28.1;                                   !- Maximum Difference In Monthly Average Outdoor Air Temperatures {deltaC}

OS:SizingPeriod:DesignDay,
  {08fd7136-74a4-4850-96a3-2b723362a17e}, !- Handle
  Sizing Period Design Day 1,             !- Name
  -20.6,                                  !- Maximum Dry-Bulb Temperature {C}
  0,                                      !- Daily Dry-Bulb Temperature Range {deltaC}
  -20.6,                                  !- Humidity Indicating Conditions at Maximum Dry-Bulb {BasedOnField A3}
  99063,                                  !- Barometric Pressure {Pa}
  4.9,                                    !- Wind Speed {m/s}
  270,                                    !- Wind Direction {deg}
  0,                                      !- Sky Clearness
  0,                                      !- Rain Indicator
  0,                                      !- Snow Indicator
  21,                                     !- Day of Month
  1,                                      !- Month
  WinterDesignDay,                        !- Day Type
  0,                                      !- Daylight Saving Time Indicator
  WetBulb,                                !- Humidity Indicating Type
  ,                                       !- Humidity Indicating Day Schedule Name
  DefaultMultipliers,                     !- Dry-Bulb Temperature Range Modifier Type
  ,                                       !- Dry-Bulb Temperature Range Modifier Schedule Name
  AshraeClearSky;                         !- Solar Model Indicator

OS:SizingPeriod:DesignDay,
  {1fb38d70-ade4-4650-a986-745367251751}, !- Handle
  Sizing Period Design Day 2,             !- Name
  33.2,                                   !- Maximum Dry-Bulb Temperature {C}
  10.7,                                   !- Daily Dry-Bulb Temperature Range {deltaC}
  23.8,                                   !- Humidity Indicating Conditions at Maximum Dry-Bulb {BasedOnField A3}
  99063,                                  !- Barometric Pressure {Pa}
  5.3,                                    !- Wind Speed {m/s}
  230,                                    !- Wind Direction {deg}
  1,                                      !- Sky Clearness
  0,                                      !- Rain Indicator
  0,                                      !- Snow Indicator
  21,                                     !- Day of Month
  7,                                      !- Month
  SummerDesignDay,                        !- Day Type
  0,                                      !- Daylight Saving Time Indicator
  WetBulb,                                !- Humidity Indicating Type
  ,                                       !- Humidity Indicating Day Schedule Name
  DefaultMultipliers,                     !- Dry-Bulb Temperature Range Modifier Type
  ,                                       !- Dry-Bulb Temperature Range Modifier Schedule Name
  AshraeClearSky;                         !- Solar Model Indicator

OS:ScheduleTypeLimits,
  {c6508f0d-a85c-4d09-948e-9260b1307f06}, !- Handle
  Temperature,                            !- Name
  -60,                                    !- Lower Limit Value {BasedOnField A4}
  200,                                    !- Upper Limit Value {BasedOnField A4}
  CONTINUOUS,                             !- Numeric Type
  Temperature;                            !- Unit Type

OS:DefaultScheduleSet,
  {f2949e49-8410-4992-b352-7d5035e129bf}, !- Handle
  Default Schedules,                      !- Name
  ,                                       !- Hours of Operation Schedule Name
  {a8a8ba77-7307-4fa5-8d1d-5b70f422b6de}, !- Number of People Schedule Name
  {3bcc952d-1bd6-483c-b6e2-a75092c32d19}, !- People Activity Level Schedule Name
  {07ffdbc2-2473-4987-a89a-4b24d7182f3d}, !- Lighting Schedule Name
  {351b1f28-df7e-4f89-95d4-88dd69fc09a1}, !- Electric Equipment Schedule Name
  {63e222f7-da26-470c-ad19-cfd98e3626ac}, !- Gas Equipment Schedule Name
  {80ddca7f-d93e-45c4-a161-7007f8d0d645}, !- Hot Water Equipment Schedule Name
  {b50718b4-ffc7-45a5-ab04-761f0b304392}, !- Infiltration Schedule Name
  ,                                       !- Steam Equipment Schedule Name
  ;                                       !- Other Equipment Schedule Name

OS:Schedule:Ruleset,
  {a8a8ba77-7307-4fa5-8d1d-5b70f422b6de}, !- Handle
  Medium Office Number of People Schedule, !- Name
  {64d06392-04ff-451e-9555-948a237467ed}, !- Schedule Type Limits Name
  {f8eebd2d-5e2e-4241-81fc-d899dbf92a9d}, !- Default Day Schedule Name
  {b35a0c82-d092-43cc-8b39-403b3a707112}; !- Summer Design Day Schedule Name

OS:Schedule:Day,
  {f8eebd2d-5e2e-4241-81fc-d899dbf92a9d}, !- Handle
  Medium Office Number of People All Other Days Schedule, !- Name
  {64d06392-04ff-451e-9555-948a237467ed}, !- Schedule Type Limits Name
  ,                                       !- Interpolate to Timestep
  24,                                     !- Hour 1
  0,                                      !- Minute 1
  0;                                      !- Value Until Time 1

OS:Schedule:Day,
  {26d2cad8-8c2e-4045-afbc-7a269299ea7f}, !- Handle
  Medium Office Number of People Summer Design Day Schedule, !- Name
  ,                                       !- Schedule Type Limits Name
  ,                                       !- Interpolate to Timestep
  6,                                      !- Hour 1
  0,                                      !- Minute 1
  0,                                      !- Value Until Time 1
  22,                                     !- Hour 2
  0,                                      !- Minute 2
  1,                                      !- Value Until Time 2
  24,                                     !- Hour 3
  0,                                      !- Minute 3
  0.05;                                   !- Value Until Time 3

OS:Schedule:Day,
  {b35a0c82-d092-43cc-8b39-403b3a707112}, !- Handle
  Medium Office Number of People Summer Design Day Schedule 1, !- Name
  {64d06392-04ff-451e-9555-948a237467ed}, !- Schedule Type Limits Name
  ,                                       !- Interpolate to Timestep
  6,                                      !- Hour 1
  0,                                      !- Minute 1
  0,                                      !- Value Until Time 1
  22,                                     !- Hour 2
  0,                                      !- Minute 2
  1,                                      !- Value Until Time 2
  24,                                     !- Hour 3
  0,                                      !- Minute 3
  0.05;                                   !- Value Until Time 3

OS:Schedule:Rule,
  {2b9d0c85-d87b-443d-822c-7331dcf65010}, !- Handle
  Medium Office Number of People Schedule Weekdays Rule, !- Name
  {a8a8ba77-7307-4fa5-8d1d-5b70f422b6de}, !- Schedule Ruleset Name
  1,                                      !- Rule Order
  {9a6ecfd2-9bf9-4715-b93e-89d7c9def935}, !- Day Schedule Name
  ,                                       !- Apply Sunday
  Yes,                                    !- Apply Monday
  Yes,                                    !- Apply Tuesday
  Yes,                                    !- Apply Wednesday
  Yes,                                    !- Apply Thursday
  Yes;                                    !- Apply Friday

OS:Schedule:Day,
  {9a6ecfd2-9bf9-4715-b93e-89d7c9def935}, !- Handle
  Medium Office Number of People Weekdays Schedule, !- Name
  {64d06392-04ff-451e-9555-948a237467ed}, !- Schedule Type Limits Name
  ,                                       !- Interpolate to Timestep
  6,                                      !- Hour 1
  0,                                      !- Minute 1
  0,                                      !- Value Until Time 1
  7,                                      !- Hour 2
  0,                                      !- Minute 2
  0.1,                                    !- Value Until Time 2
  8,                                      !- Hour 3
  0,                                      !- Minute 3
  0.2,                                    !- Value Until Time 3
  12,                                     !- Hour 4
  0,                                      !- Minute 4
  0.95,                                   !- Value Until Time 4
  13,                                     !- Hour 5
  0,                                      !- Minute 5
  0.5,                                    !- Value Until Time 5
  17,                                     !- Hour 6
  0,                                      !- Minute 6
  0.95,                                   !- Value Until Time 6
  18,                                     !- Hour 7
  0,                                      !- Minute 7
  0.7,                                    !- Value Until Time 7
  20,                                     !- Hour 8
  0,                                      !- Minute 8
  0.4,                                    !- Value Until Time 8
  22,                                     !- Hour 9
  0,                                      !- Minute 9
  0.1,                                    !- Value Until Time 9
  24,                                     !- Hour 10
  0,                                      !- Minute 10
  0.05;                                   !- Value Until Time 10

OS:Schedule:Rule,
  {0328dba5-4491-4e1e-a826-50bdf5ac36d5}, !- Handle
  Medium Office Number of People Schedule Saturday Rule, !- Name
  {a8a8ba77-7307-4fa5-8d1d-5b70f422b6de}, !- Schedule Ruleset Name
  0,                                      !- Rule Order
  {948e8c22-7d44-476c-8f9e-2065381f5679}, !- Day Schedule Name
  ,                                       !- Apply Sunday
  ,                                       !- Apply Monday
  ,                                       !- Apply Tuesday
  ,                                       !- Apply Wednesday
  ,                                       !- Apply Thursday
  ,                                       !- Apply Friday
  Yes;                                    !- Apply Saturday

OS:Schedule:Day,
  {948e8c22-7d44-476c-8f9e-2065381f5679}, !- Handle
  Medium Office Number of People Saturday Schedule, !- Name
  {64d06392-04ff-451e-9555-948a237467ed}, !- Schedule Type Limits Name
  ,                                       !- Interpolate to Timestep
  6,                                      !- Hour 1
  0,                                      !- Minute 1
  0,                                      !- Value Until Time 1
  8,                                      !- Hour 2
  0,                                      !- Minute 2
  0.1,                                    !- Value Until Time 2
  14,                                     !- Hour 3
  0,                                      !- Minute 3
  0.5,                                    !- Value Until Time 3
  17,                                     !- Hour 4
  0,                                      !- Minute 4
  0.1,                                    !- Value Until Time 4
  24,                                     !- Hour 5
  0,                                      !- Minute 5
  0;                                      !- Value Until Time 5

OS:ScheduleTypeLimits,
  {64d06392-04ff-451e-9555-948a237467ed}, !- Handle
  Fractional,                             !- Name
  0,                                      !- Lower Limit Value {BasedOnField A4}
  1,                                      !- Upper Limit Value {BasedOnField A4}
  Continuous;                             !- Numeric Type

OS:Schedule:Ruleset,
  {3bcc952d-1bd6-483c-b6e2-a75092c32d19}, !- Handle
  Medium Office People Activity Level Schedule, !- Name
  {d05ebc92-b793-4271-9f22-f136ed40ff86}, !- Schedule Type Limits Name
  {dfadd874-31df-4127-a280-dba106b52363}; !- Default Day Schedule Name

OS:Schedule:Day,
  {dfadd874-31df-4127-a280-dba106b52363}, !- Handle
  Medium Office People Activity Level All Days Schedule, !- Name
  {d05ebc92-b793-4271-9f22-f136ed40ff86}, !- Schedule Type Limits Name
  ,                                       !- Interpolate to Timestep
  24,                                     !- Hour 1
  0,                                      !- Minute 1
  120;                                    !- Value Until Time 1

OS:ScheduleTypeLimits,
  {d05ebc92-b793-4271-9f22-f136ed40ff86}, !- Handle
  ActivityLevel,                          !- Name
  0,                                      !- Lower Limit Value {BasedOnField A4}
  ,                                       !- Upper Limit Value {BasedOnField A4}
  Continuous,                             !- Numeric Type
  ActivityLevel;                          !- Unit Type

OS:Schedule:Ruleset,
  {07ffdbc2-2473-4987-a89a-4b24d7182f3d}, !- Handle
  Medium Office Lighting Schedule,        !- Name
  {64d06392-04ff-451e-9555-948a237467ed}, !- Schedule Type Limits Name
  {b24cb994-2795-4386-8476-67538a1917ac}, !- Default Day Schedule Name
  {9cfc10ef-a35d-4229-9068-6eba395292b6}, !- Summer Design Day Schedule Name
  {9028f326-2dc5-41bb-a69c-2ee0ddd33d17}; !- Winter Design Day Schedule Name

OS:Schedule:Day,
  {b24cb994-2795-4386-8476-67538a1917ac}, !- Handle
  Medium Office Lighting All Other Days Schedule, !- Name
  {64d06392-04ff-451e-9555-948a237467ed}, !- Schedule Type Limits Name
  ,                                       !- Interpolate to Timestep
  24,                                     !- Hour 1
  0,                                      !- Minute 1
  0.05;                                   !- Value Until Time 1

OS:Schedule:Day,
  {346d2328-751e-40fc-b290-1e3ff3b40a17}, !- Handle
  Medium Office Lighting Summer Design Day Schedule, !- Name
  ,                                       !- Schedule Type Limits Name
  ,                                       !- Interpolate to Timestep
  6,                                      !- Hour 1
  0,                                      !- Minute 1
  1,                                      !- Value Until Time 1
  24,                                     !- Hour 2
  0,                                      !- Minute 2
  0;                                      !- Value Until Time 2

OS:Schedule:Day,
  {9cfc10ef-a35d-4229-9068-6eba395292b6}, !- Handle
  Medium Office Lighting Summer Design Day Schedule 1, !- Name
  {64d06392-04ff-451e-9555-948a237467ed}, !- Schedule Type Limits Name
  ,                                       !- Interpolate to Timestep
  6,                                      !- Hour 1
  0,                                      !- Minute 1
  1,                                      !- Value Until Time 1
  24,                                     !- Hour 2
  0,                                      !- Minute 2
  0;                                      !- Value Until Time 2

OS:Schedule:Day,
  {211ffdd3-59cb-4007-ab77-23f957969157}, !- Handle
  Medium Office Lighting Winter Design Day Schedule, !- Name
  ,                                       !- Schedule Type Limits Name
  ,                                       !- Interpolate to Timestep
  24,                                     !- Hour 1
  0,                                      !- Minute 1
  0;                                      !- Value Until Time 1

OS:Schedule:Day,
  {9028f326-2dc5-41bb-a69c-2ee0ddd33d17}, !- Handle
  Medium Office Lighting Winter Design Day Schedule 1, !- Name
  {64d06392-04ff-451e-9555-948a237467ed}, !- Schedule Type Limits Name
  ,                                       !- Interpolate to Timestep
  24,                                     !- Hour 1
  0,                                      !- Minute 1
  0;                                      !- Value Until Time 1

OS:Schedule:Rule,
  {0aaa511b-c35b-4c55-ac77-97aa4a2d683d}, !- Handle
  Medium Office Lighting Schedule Weekdays Rule, !- Name
  {07ffdbc2-2473-4987-a89a-4b24d7182f3d}, !- Schedule Ruleset Name
  1,                                      !- Rule Order
  {c8c408ee-b152-4819-87c0-c909ed5e731a}, !- Day Schedule Name
  ,                                       !- Apply Sunday
  Yes,                                    !- Apply Monday
  Yes,                                    !- Apply Tuesday
  Yes,                                    !- Apply Wednesday
  Yes,                                    !- Apply Thursday
  Yes;                                    !- Apply Friday

OS:Schedule:Day,
  {c8c408ee-b152-4819-87c0-c909ed5e731a}, !- Handle
  Medium Office Lighting Weekdays Schedule, !- Name
  {64d06392-04ff-451e-9555-948a237467ed}, !- Schedule Type Limits Name
  ,                                       !- Interpolate to Timestep
  5,                                      !- Hour 1
  0,                                      !- Minute 1
  0.05,                                   !- Value Until Time 1
  7,                                      !- Hour 2
  0,                                      !- Minute 2
  0.1,                                    !- Value Until Time 2
  8,                                      !- Hour 3
  0,                                      !- Minute 3
  0.3,                                    !- Value Until Time 3
  17,                                     !- Hour 4
  0,                                      !- Minute 4
  0.9,                                    !- Value Until Time 4
  18,                                     !- Hour 5
  0,                                      !- Minute 5
  0.7,                                    !- Value Until Time 5
  20,                                     !- Hour 6
  0,                                      !- Minute 6
  0.5,                                    !- Value Until Time 6
  22,                                     !- Hour 7
  0,                                      !- Minute 7
  0.3,                                    !- Value Until Time 7
  23,                                     !- Hour 8
  0,                                      !- Minute 8
  0.1,                                    !- Value Until Time 8
  24,                                     !- Hour 9
  0,                                      !- Minute 9
  0.05;                                   !- Value Until Time 9

OS:Schedule:Rule,
  {11076ccb-5a33-4438-9a20-21f5c7ce772a}, !- Handle
  Medium Office Lighting Schedule Saturday Rule, !- Name
  {07ffdbc2-2473-4987-a89a-4b24d7182f3d}, !- Schedule Ruleset Name
  0,                                      !- Rule Order
  {8f360a76-f1e5-44b7-a7c1-5b371e430689}, !- Day Schedule Name
  ,                                       !- Apply Sunday
  ,                                       !- Apply Monday
  ,                                       !- Apply Tuesday
  ,                                       !- Apply Wednesday
  ,                                       !- Apply Thursday
  ,                                       !- Apply Friday
  Yes;                                    !- Apply Saturday

OS:Schedule:Day,
  {8f360a76-f1e5-44b7-a7c1-5b371e430689}, !- Handle
  Medium Office Lighting Saturday Schedule, !- Name
  {64d06392-04ff-451e-9555-948a237467ed}, !- Schedule Type Limits Name
  ,                                       !- Interpolate to Timestep
  6,                                      !- Hour 1
  0,                                      !- Minute 1
  0.05,                                   !- Value Until Time 1
  8,                                      !- Hour 2
  0,                                      !- Minute 2
  0.1,                                    !- Value Until Time 2
  14,                                     !- Hour 3
  0,                                      !- Minute 3
  0.5,                                    !- Value Until Time 3
  17,                                     !- Hour 4
  0,                                      !- Minute 4
  0.15,                                   !- Value Until Time 4
  24,                                     !- Hour 5
  0,                                      !- Minute 5
  0.05;                                   !- Value Until Time 5

OS:Schedule:Ruleset,
  {351b1f28-df7e-4f89-95d4-88dd69fc09a1}, !- Handle
  Medium Office Electric Equipment Schedule, !- Name
  {64d06392-04ff-451e-9555-948a237467ed}, !- Schedule Type Limits Name
  {6643fafa-dd4a-40e9-8c82-b59eea5ee79e}, !- Default Day Schedule Name
  {cb20dd4a-e594-4f22-ada5-0aebadfdb436}, !- Summer Design Day Schedule Name
  {d3fa0601-1e94-4bac-a489-090ed74de993}; !- Winter Design Day Schedule Name

OS:Schedule:Day,
  {6643fafa-dd4a-40e9-8c82-b59eea5ee79e}, !- Handle
  Medium Office Electric Equipment All Other Days Schedule, !- Name
  {64d06392-04ff-451e-9555-948a237467ed}, !- Schedule Type Limits Name
  ,                                       !- Interpolate to Timestep
  24,                                     !- Hour 1
  0,                                      !- Minute 1
  0.3;                                    !- Value Until Time 1

OS:Schedule:Day,
  {94b28d73-50a1-430d-b979-910e66372fee}, !- Handle
  Medium Office Electric Equipment Summer Design Day Schedule, !- Name
  ,                                       !- Schedule Type Limits Name
  ,                                       !- Interpolate to Timestep
  6,                                      !- Hour 1
  0,                                      !- Minute 1
  1,                                      !- Value Until Time 1
  24,                                     !- Hour 2
  0,                                      !- Minute 2
  0;                                      !- Value Until Time 2

OS:Schedule:Day,
  {cb20dd4a-e594-4f22-ada5-0aebadfdb436}, !- Handle
  Medium Office Electric Equipment Summer Design Day Schedule 1, !- Name
  {64d06392-04ff-451e-9555-948a237467ed}, !- Schedule Type Limits Name
  ,                                       !- Interpolate to Timestep
  6,                                      !- Hour 1
  0,                                      !- Minute 1
  1,                                      !- Value Until Time 1
  24,                                     !- Hour 2
  0,                                      !- Minute 2
  0;                                      !- Value Until Time 2

OS:Schedule:Day,
  {d3137eed-a6e0-4793-ae17-6fdd85cbf7bd}, !- Handle
  Medium Office Electric Equipment Winter Design Day Schedule, !- Name
  ,                                       !- Schedule Type Limits Name
  ,                                       !- Interpolate to Timestep
  24,                                     !- Hour 1
  0,                                      !- Minute 1
  0;                                      !- Value Until Time 1

OS:Schedule:Day,
  {d3fa0601-1e94-4bac-a489-090ed74de993}, !- Handle
  Medium Office Electric Equipment Winter Design Day Schedule 1, !- Name
  {64d06392-04ff-451e-9555-948a237467ed}, !- Schedule Type Limits Name
  ,                                       !- Interpolate to Timestep
  24,                                     !- Hour 1
  0,                                      !- Minute 1
  0;                                      !- Value Until Time 1

OS:Schedule:Rule,
  {ee65903c-8909-4555-b24f-bacf73089044}, !- Handle
  Medium Office Electric Equipment Schedule Weekdays Rule, !- Name
  {351b1f28-df7e-4f89-95d4-88dd69fc09a1}, !- Schedule Ruleset Name
  1,                                      !- Rule Order
  {4c39ac78-f8dd-4bea-b8d1-82c2a6985a80}, !- Day Schedule Name
  ,                                       !- Apply Sunday
  Yes,                                    !- Apply Monday
  Yes,                                    !- Apply Tuesday
  Yes,                                    !- Apply Wednesday
  Yes,                                    !- Apply Thursday
  Yes;                                    !- Apply Friday

OS:Schedule:Day,
  {4c39ac78-f8dd-4bea-b8d1-82c2a6985a80}, !- Handle
  Medium Office Electric Equipment Weekdays Schedule, !- Name
  {64d06392-04ff-451e-9555-948a237467ed}, !- Schedule Type Limits Name
  ,                                       !- Interpolate to Timestep
  8,                                      !- Hour 1
  0,                                      !- Minute 1
  0.4,                                    !- Value Until Time 1
  12,                                     !- Hour 2
  0,                                      !- Minute 2
  0.9,                                    !- Value Until Time 2
  13,                                     !- Hour 3
  0,                                      !- Minute 3
  0.8,                                    !- Value Until Time 3
  17,                                     !- Hour 4
  0,                                      !- Minute 4
  0.9,                                    !- Value Until Time 4
  18,                                     !- Hour 5
  0,                                      !- Minute 5
  0.8,                                    !- Value Until Time 5
  20,                                     !- Hour 6
  0,                                      !- Minute 6
  0.6,                                    !- Value Until Time 6
  22,                                     !- Hour 7
  0,                                      !- Minute 7
  0.5,                                    !- Value Until Time 7
  24,                                     !- Hour 8
  0,                                      !- Minute 8
  0.4;                                    !- Value Until Time 8

OS:Schedule:Rule,
  {496ebf56-eb70-40ac-8393-90b458fc28ef}, !- Handle
  Medium Office Electric Equipment Schedule Saturday Rule, !- Name
  {351b1f28-df7e-4f89-95d4-88dd69fc09a1}, !- Schedule Ruleset Name
  0,                                      !- Rule Order
  {e835a86b-bb62-4df4-999d-63a251697833}, !- Day Schedule Name
  ,                                       !- Apply Sunday
  ,                                       !- Apply Monday
  ,                                       !- Apply Tuesday
  ,                                       !- Apply Wednesday