
OS:Version,
  {29764386-822d-42fb-b58b-8faa992e43b8}, !- Handle
  0.11.0;                                 !- Version Identifier

OS:SimulationControl,
  {f3b7a066-3076-40f9-b5ac-75c2cf2c7fdb}, !- Handle
  Yes,                                    !- Do Zone Sizing Calculation
  Yes,                                    !- Do System Sizing Calculation
  ,                                       !- Do Plant Sizing Calculation
  No,                                     !- Run Simulation for Sizing Periods
  Yes;                                    !- Run Simulation for Weather File Run Periods

OS:Timestep,
  {24f7bd26-6896-4f69-ac98-10e5b3a514f7}, !- Handle
  6;                                      !- Number of Timesteps per Hour

OS:RunPeriod,
  {96e3b1fa-0423-48cd-8ee9-e24c7d1545d5}, !- Handle
  Run Period 1,                           !- Name
  1,                                      !- Begin Month
  1,                                      !- Begin Day of Month
  12,                                     !- End Month
  31,                                     !- End Day of Month
  No,                                     !- Use Weather File Holidays and Special Days
  No,                                     !- Use Weather File Daylight Saving Period
  No,                                     !- Apply Weekend Holiday Rule
  Yes,                                    !- Use Weather File Rain Indicators
  Yes,                                    !- Use Weather File Snow Indicators
  1;                                      !- Number of Times Runperiod to be Repeated

OS:SurfaceConvectionAlgorithm:Inside,
  {093ba3e1-f971-4a80-a8bb-f1ecc65449ec}, !- Handle
  TARP;                                   !- Algorithm

OS:SurfaceConvectionAlgorithm:Outside,
  {2109a171-c680-4c78-8658-801376c3ed58}, !- Handle
  DOE-2;                                  !- Algorithm

OS:HeatBalanceAlgorithm,
  {1e22fc99-0f0d-4297-940a-4312162b003d}, !- Handle
  ConductionTransferFunction,             !- Algorithm
  200;                                    !- Surface Temperature Upper Limit {F}

OS:ZoneAirHeatBalanceAlgorithm,
  {5fb8c497-5054-4a1d-8dca-438946886022}, !- Handle
  AnalyticalSolution;                     !- Algorithm

OS:ConvergenceLimits,
  {7be1fd96-cb1c-4249-ad02-46ed61e0d2ae}; !- Handle

OS:ShadowCalculation,
  {51685406-2e75-4a35-a943-64fd9b1380fa}, !- Handle
  7,                                      !- Calculation Frequency
  15000;                                  !- Maximum Figures in Shadow Overlap Calculations

OS:Site,
  {a9ec4ac7-9043-42f1-914b-13a8cc974cc3}, !- Handle
  Site 1,                                 !- Name
  41.77,                                  !- Latitude {deg}
  -87.75,                                 !- Longitude {deg}
  -6,                                     !- Time Zone {hr}
  190,                                    !- Elevation {m}
  ;                                       !- Terrain

OS:Site:GroundTemperature:BuildingSurface,
  {30367853-0195-4d05-9195-ac4c6b45c6e8}, !- Handle
  19.527,                                 !- January Ground Temperature {C}
  19.502,                                 !- February Ground Temperature {C}
  19.536,                                 !- March Ground Temperature {C}
  19.598,                                 !- April Ground Temperature {C}
  20.002,                                 !- May Ground Temperature {C}
  21.64,                                  !- June Ground Temperature {C}
  22.225,                                 !- July Ground Temperature {C}
  22.375,                                 !- August Ground Temperature {C}
  21.449,                                 !- September Ground Temperature {C}
  20.121,                                 !- October Ground Temperature {C}
  19.802,                                 !- November Ground Temperature {C}
  19.633;                                 !- December Ground Temperature {C}

OS:Site:WaterMainsTemperature,
  {526e130a-c08e-49ee-8b85-3fa9dae230ed}, !- Handle
  Correlation,                            !- Calculation Method
  ,                                       !- Temperature Schedule Name
  9.69,                                   !- Annual Average Outdoor Air Temperature {C}
  28.1;                                   !- Maximum Difference In Monthly Average Outdoor Air Temperatures {deltaC}

OS:SizingPeriod:DesignDay,
  {e9aeae46-305a-47c5-8392-f92a19b05395}, !- Handle
  Sizing Period Design Day 1,             !- Name
  -20.6,                                  !- Maximum Dry-Bulb Temperature {C}
  0,                                      !- Daily Dry-Bulb Temperature Range {deltaC}
  -20.6,                                  !- Humidity Indicating Conditions at Maximum Dry-Bulb {BasedOnField A3}
  99063,                                  !- Barometric Pressure {Pa}
  4.9,                                    !- Wind Speed {m/s}
  270,                                    !- Wind Direction {deg}
  0,                                      !- Sky Clearness
  0,                                      !- Rain Indicator
  0,                                      !- Snow Indicator
  21,                                     !- Day of Month
  1,                                      !- Month
  WinterDesignDay,                        !- Day Type
  0,                                      !- Daylight Saving Time Indicator
  WetBulb,                                !- Humidity Indicating Type
  ,                                       !- Humidity Indicating Day Schedule Name
  DefaultMultipliers,                     !- Dry-Bulb Temperature Range Modifier Type
  ,                                       !- Dry-Bulb Temperature Range Modifier Schedule Name
  AshraeClearSky;                         !- Solar Model Indicator

OS:SizingPeriod:DesignDay,
  {8fd6bbd1-a83e-422e-9a7d-0af91a1b7261}, !- Handle
  Sizing Period Design Day 2,             !- Name
  33.2,                                   !- Maximum Dry-Bulb Temperature {C}
  10.7,                                   !- Daily Dry-Bulb Temperature Range {deltaC}
  23.8,                                   !- Humidity Indicating Conditions at Maximum Dry-Bulb {BasedOnField A3}
  99063,                                  !- Barometric Pressure {Pa}
  5.3,                                    !- Wind Speed {m/s}
  230,                                    !- Wind Direction {deg}
  1,                                      !- Sky Clearness
  0,                                      !- Rain Indicator
  0,                                      !- Snow Indicator
  21,                                     !- Day of Month
  7,                                      !- Month
  SummerDesignDay,                        !- Day Type
  0,                                      !- Daylight Saving Time Indicator
  WetBulb,                                !- Humidity Indicating Type
  ,                                       !- Humidity Indicating Day Schedule Name
  DefaultMultipliers,                     !- Dry-Bulb Temperature Range Modifier Type
  ,                                       !- Dry-Bulb Temperature Range Modifier Schedule Name
  AshraeClearSky;                         !- Solar Model Indicator

OS:ScheduleTypeLimits,
  {5f678e5d-d0a6-48c0-a330-b710d80ba5e8}, !- Handle
  Temperature,                            !- Name
  -60,                                    !- Lower Limit Value {BasedOnField A4}
  200,                                    !- Upper Limit Value {BasedOnField A4}
  CONTINUOUS,                             !- Numeric Type
  Temperature;                            !- Unit Type

OS:DefaultScheduleSet,
  {88900c38-dd6b-479d-80c6-1f2508065cd6}, !- Handle
  Default Schedules,                      !- Name
  ,                                       !- Hours of Operation Schedule Name
  {5b043694-af07-40d0-96f1-d00191538e1a}, !- Number of People Schedule Name
  {40d32d97-4964-40cf-8338-a3b1b9557f25}, !- People Activity Level Schedule Name
  {36565005-4ffa-4c1c-afce-1268dfbc6617}, !- Lighting Schedule Name
  {52450b58-1a4b-4452-bf9e-af51f7a05a55}, !- Electric Equipment Schedule Name
  {03de9c07-273d-4b05-a00b-e2c3ad23982a}, !- Gas Equipment Schedule Name
  {b7d96363-c214-42f3-8d12-4e1f581c6e4c}, !- Hot Water Equipment Schedule Name
  {4bad80bf-ef62-46a4-84d9-75c70b82947c}, !- Infiltration Schedule Name
  ,                                       !- Steam Equipment Schedule Name
  ;                                       !- Other Equipment Schedule Name

OS:Schedule:Ruleset,
  {5b043694-af07-40d0-96f1-d00191538e1a}, !- Handle
  Medium Office Number of People Schedule, !- Name
  {1ebc047e-4d90-46ec-88c8-6f5b04c5689e}, !- Schedule Type Limits Name
  {366bb214-6bb3-452c-a3a3-4553306c5442}, !- Default Day Schedule Name
  {27939e3e-a04e-4285-b76a-ce3af2089b2a}; !- Summer Design Day Schedule Name

OS:Schedule:Day,
  {366bb214-6bb3-452c-a3a3-4553306c5442}, !- Handle
  Medium Office Number of People All Other Days Schedule, !- Name
  {1ebc047e-4d90-46ec-88c8-6f5b04c5689e}, !- Schedule Type Limits Name
  ,                                       !- Interpolate to Timestep
  24,                                     !- Hour 1
  0,                                      !- Minute 1
  0;                                      !- Value Until Time 1

OS:Schedule:Day,
  {f6d2bfda-45db-417a-a481-5b1ec2290409}, !- Handle
  Medium Office Number of People Summer Design Day Schedule, !- Name
  ,                                       !- Schedule Type Limits Name
  ,                                       !- Interpolate to Timestep
  6,                                      !- Hour 1
  0,                                      !- Minute 1
  0,                                      !- Value Until Time 1
  22,                                     !- Hour 2
  0,                                      !- Minute 2
  1,                                      !- Value Until Time 2
  24,                                     !- Hour 3
  0,                                      !- Minute 3
  0.05;                                   !- Value Until Time 3

OS:Schedule:Day,
  {27939e3e-a04e-4285-b76a-ce3af2089b2a}, !- Handle
  Medium Office Number of People Summer Design Day Schedule 1, !- Name
  {1ebc047e-4d90-46ec-88c8-6f5b04c5689e}, !- Schedule Type Limits Name
  ,                                       !- Interpolate to Timestep
  6,                                      !- Hour 1
  0,                                      !- Minute 1
  0,                                      !- Value Until Time 1
  22,                                     !- Hour 2
  0,                                      !- Minute 2
  1,                                      !- Value Until Time 2
  24,                                     !- Hour 3
  0,                                      !- Minute 3
  0.05;                                   !- Value Until Time 3

OS:Schedule:Rule,
  {bae48e73-bc46-4ecd-a0a3-1b5cda601240}, !- Handle
  Medium Office Number of People Schedule Weekdays Rule, !- Name
  {5b043694-af07-40d0-96f1-d00191538e1a}, !- Schedule Ruleset Name
  1,                                      !- Rule Order
  {63eba292-ac8b-44d3-9b37-ad82e0486813}, !- Day Schedule Name
  ,                                       !- Apply Sunday
  Yes,                                    !- Apply Monday
  Yes,                                    !- Apply Tuesday
  Yes,                                    !- Apply Wednesday
  Yes,                                    !- Apply Thursday
  Yes;                                    !- Apply Friday

OS:Schedule:Day,
  {63eba292-ac8b-44d3-9b37-ad82e0486813}, !- Handle
  Medium Office Number of People Weekdays Schedule, !- Name
  {1ebc047e-4d90-46ec-88c8-6f5b04c5689e}, !- Schedule Type Limits Name
  ,                                       !- Interpolate to Timestep
  6,                                      !- Hour 1
  0,                                      !- Minute 1
  0,                                      !- Value Until Time 1
  7,                                      !- Hour 2
  0,                                      !- Minute 2
  0.1,                                    !- Value Until Time 2
  8,                                      !- Hour 3
  0,                                      !- Minute 3
  0.2,                                    !- Value Until Time 3
  12,                                     !- Hour 4
  0,                                      !- Minute 4
  0.95,                                   !- Value Until Time 4
  13,                                     !- Hour 5
  0,                                      !- Minute 5
  0.5,                                    !- Value Until Time 5
  17,                                     !- Hour 6
  0,                                      !- Minute 6
  0.95,                                   !- Value Until Time 6
  18,                                     !- Hour 7
  0,                                      !- Minute 7
  0.7,                                    !- Value Until Time 7
  20,                                     !- Hour 8
  0,                                      !- Minute 8
  0.4,                                    !- Value Until Time 8
  22,                                     !- Hour 9
  0,                                      !- Minute 9
  0.1,                                    !- Value Until Time 9
  24,                                     !- Hour 10
  0,                                      !- Minute 10
  0.05;                                   !- Value Until Time 10

OS:Schedule:Rule,
  {f4840b59-4d66-4c65-94c2-a185fe5e88db}, !- Handle
  Medium Office Number of People Schedule Saturday Rule, !- Name
  {5b043694-af07-40d0-96f1-d00191538e1a}, !- Schedule Ruleset Name
  0,                                      !- Rule Order
  {55978fee-c125-44d9-ae12-058e94a09cb9}, !- Day Schedule Name
  ,                                       !- Apply Sunday
  ,                                       !- Apply Monday
  ,                                       !- Apply Tuesday
  ,                                       !- Apply Wednesday
  ,                                       !- Apply Thursday
  ,                                       !- Apply Friday
  Yes;                                    !- Apply Saturday

OS:Schedule:Day,
  {55978fee-c125-44d9-ae12-058e94a09cb9}, !- Handle
  Medium Office Number of People Saturday Schedule, !- Name
  {1ebc047e-4d90-46ec-88c8-6f5b04c5689e}, !- Schedule Type Limits Name
  ,                                       !- Interpolate to Timestep
  6,                                      !- Hour 1
  0,                                      !- Minute 1
  0,                                      !- Value Until Time 1
  8,                                      !- Hour 2
  0,                                      !- Minute 2
  0.1,                                    !- Value Until Time 2
  14,                                     !- Hour 3
  0,                                      !- Minute 3
  0.5,                                    !- Value Until Time 3
  17,                                     !- Hour 4
  0,                                      !- Minute 4
  0.1,                                    !- Value Until Time 4
  24,                                     !- Hour 5
  0,                                      !- Minute 5
  0;                                      !- Value Until Time 5

OS:ScheduleTypeLimits,
  {1ebc047e-4d90-46ec-88c8-6f5b04c5689e}, !- Handle
  Fractional,                             !- Name
  0,                                      !- Lower Limit Value {BasedOnField A4}
  1,                                      !- Upper Limit Value {BasedOnField A4}
  Continuous;                             !- Numeric Type

OS:Schedule:Ruleset,
  {40d32d97-4964-40cf-8338-a3b1b9557f25}, !- Handle
  Medium Office People Activity Level Schedule, !- Name
  {cd9efa17-a0f9-4276-bdfe-5bbd6e7d43c0}, !- Schedule Type Limits Name
  {6d30a190-728e-4c93-b203-d30da2889ac9}; !- Default Day Schedule Name

OS:Schedule:Day,
  {6d30a190-728e-4c93-b203-d30da2889ac9}, !- Handle
  Medium Office People Activity Level All Days Schedule, !- Name
  {cd9efa17-a0f9-4276-bdfe-5bbd6e7d43c0}, !- Schedule Type Limits Name
  ,                                       !- Interpolate to Timestep
  24,                                     !- Hour 1
  0,                                      !- Minute 1
  120;                                    !- Value Until Time 1

OS:ScheduleTypeLimits,
  {cd9efa17-a0f9-4276-bdfe-5bbd6e7d43c0}, !- Handle
  ActivityLevel,                          !- Name
  0,                                      !- Lower Limit Value {BasedOnField A4}
  ,                                       !- Upper Limit Value {BasedOnField A4}
  Continuous,                             !- Numeric Type
  ActivityLevel;                          !- Unit Type

OS:Schedule:Ruleset,
  {36565005-4ffa-4c1c-afce-1268dfbc6617}, !- Handle
  Medium Office Lighting Schedule,        !- Name
  {1ebc047e-4d90-46ec-88c8-6f5b04c5689e}, !- Schedule Type Limits Name
  {6155efc1-86e9-41a2-aa69-19bc64590bae}, !- Default Day Schedule Name
  {3a2122d8-f574-4fa4-ab91-31cfd6f00c4d}, !- Summer Design Day Schedule Name
  {a4add0c3-58e4-41d1-9151-ec97c9d0de44}; !- Winter Design Day Schedule Name

OS:Schedule:Day,
  {6155efc1-86e9-41a2-aa69-19bc64590bae}, !- Handle
  Medium Office Lighting All Other Days Schedule, !- Name
  {1ebc047e-4d90-46ec-88c8-6f5b04c5689e}, !- Schedule Type Limits Name
  ,                                       !- Interpolate to Timestep
  24,                                     !- Hour 1
  0,                                      !- Minute 1
  0.05;                                   !- Value Until Time 1

OS:Schedule:Day,
  {2d2878c8-df0f-4ddf-a2af-5f8f009f7013}, !- Handle
  Medium Office Lighting Summer Design Day Schedule, !- Name
  ,                                       !- Schedule Type Limits Name
  ,                                       !- Interpolate to Timestep
  6,                                      !- Hour 1
  0,                                      !- Minute 1
  1,                                      !- Value Until Time 1
  24,                                     !- Hour 2
  0,                                      !- Minute 2
  0;                                      !- Value Until Time 2

OS:Schedule:Day,
  {3a2122d8-f574-4fa4-ab91-31cfd6f00c4d}, !- Handle
  Medium Office Lighting Summer Design Day Schedule 1, !- Name
  {1ebc047e-4d90-46ec-88c8-6f5b04c5689e}, !- Schedule Type Limits Name
  ,                                       !- Interpolate to Timestep
  6,                                      !- Hour 1
  0,                                      !- Minute 1
  1,                                      !- Value Until Time 1
  24,                                     !- Hour 2
  0,                                      !- Minute 2
  0;                                      !- Value Until Time 2

OS:Schedule:Day,
  {ce87fcc8-6dec-4de0-9775-49d2d467c42d}, !- Handle
  Medium Office Lighting Winter Design Day Schedule, !- Name
  ,                                       !- Schedule Type Limits Name
  ,                                       !- Interpolate to Timestep
  24,                                     !- Hour 1
  0,                                      !- Minute 1
  0;                                      !- Value Until Time 1

OS:Schedule:Day,
  {a4add0c3-58e4-41d1-9151-ec97c9d0de44}, !- Handle
  Medium Office Lighting Winter Design Day Schedule 1, !- Name
  {1ebc047e-4d90-46ec-88c8-6f5b04c5689e}, !- Schedule Type Limits Name
  ,                                       !- Interpolate to Timestep
  24,                                     !- Hour 1
  0,                                      !- Minute 1
  0;                                      !- Value Until Time 1

OS:Schedule:Rule,
  {7cf2b83d-6190-4225-a707-79f135ede784}, !- Handle
  Medium Office Lighting Schedule Weekdays Rule, !- Name
  {36565005-4ffa-4c1c-afce-1268dfbc6617}, !- Schedule Ruleset Name
  1,                                      !- Rule Order
  {65fb84dd-90da-47fa-a8b3-7b51635492c3}, !- Day Schedule Name
  ,                                       !- Apply Sunday
  Yes,                                    !- Apply Monday
  Yes,                                    !- Apply Tuesday
  Yes,                                    !- Apply Wednesday
  Yes,                                    !- Apply Thursday
  Yes;                                    !- Apply Friday

OS:Schedule:Day,
  {65fb84dd-90da-47fa-a8b3-7b51635492c3}, !- Handle
  Medium Office Lighting Weekdays Schedule, !- Name
  {1ebc047e-4d90-46ec-88c8-6f5b04c5689e}, !- Schedule Type Limits Name
  ,                                       !- Interpolate to Timestep
  5,                                      !- Hour 1
  0,                                      !- Minute 1
  0.05,                                   !- Value Until Time 1
  7,                                      !- Hour 2
  0,                                      !- Minute 2
  0.1,                                    !- Value Until Time 2
  8,                                      !- Hour 3
  0,                                      !- Minute 3
  0.3,                                    !- Value Until Time 3
  17,                                     !- Hour 4
  0,                                      !- Minute 4
  0.9,                                    !- Value Until Time 4
  18,                                     !- Hour 5
  0,                                      !- Minute 5
  0.7,                                    !- Value Until Time 5
  20,                                     !- Hour 6
  0,                                      !- Minute 6
  0.5,                                    !- Value Until Time 6
  22,                                     !- Hour 7
  0,                                      !- Minute 7
  0.3,                                    !- Value Until Time 7
  23,                                     !- Hour 8
  0,                                      !- Minute 8
  0.1,                                    !- Value Until Time 8
  24,                                     !- Hour 9
  0,                                      !- Minute 9
  0.05;                                   !- Value Until Time 9

OS:Schedule:Rule,
  {f97dc449-dfd2-4a00-8fe8-f72d399b06b9}, !- Handle
  Medium Office Lighting Schedule Saturday Rule, !- Name
  {36565005-4ffa-4c1c-afce-1268dfbc6617}, !- Schedule Ruleset Name
  0,                                      !- Rule Order
  {8049be6a-f714-47f9-9fbe-0f0814a7020d}, !- Day Schedule Name
  ,                                       !- Apply Sunday
  ,                                       !- Apply Monday
  ,                                       !- Apply Tuesday
  ,                                       !- Apply Wednesday
  ,                                       !- Apply Thursday
  ,                                       !- Apply Friday
  Yes;                                    !- Apply Saturday

OS:Schedule:Day,
  {8049be6a-f714-47f9-9fbe-0f0814a7020d}, !- Handle
  Medium Office Lighting Saturday Schedule, !- Name
  {1ebc047e-4d90-46ec-88c8-6f5b04c5689e}, !- Schedule Type Limits Name
  ,                                       !- Interpolate to Timestep
  6,                                      !- Hour 1
  0,                                      !- Minute 1
  0.05,                                   !- Value Until Time 1
  8,                                      !- Hour 2
  0,                                      !- Minute 2
  0.1,                                    !- Value Until Time 2
  14,                                     !- Hour 3
  0,                                      !- Minute 3
  0.5,                                    !- Value Until Time 3
  17,                                     !- Hour 4
  0,                                      !- Minute 4
  0.15,                                   !- Value Until Time 4
  24,                                     !- Hour 5
  0,                                      !- Minute 5
  0.05;                                   !- Value Until Time 5

OS:Schedule:Ruleset,
  {52450b58-1a4b-4452-bf9e-af51f7a05a55}, !- Handle
  Medium Office Electric Equipment Schedule, !- Name
  {1ebc047e-4d90-46ec-88c8-6f5b04c5689e}, !- Schedule Type Limits Name
  {3339d8a7-3f10-407d-b18a-ab3fdc1940ca}, !- Default Day Schedule Name
  {c807702f-6f48-4ccc-9192-82e197763527}, !- Summer Design Day Schedule Name
  {c6a41497-0f26-4407-bbfc-ffc7158dc209}; !- Winter Design Day Schedule Name

OS:Schedule:Day,
  {3339d8a7-3f10-407d-b18a-ab3fdc1940ca}, !- Handle
  Medium Office Electric Equipment All Other Days Schedule, !- Name
  {1ebc047e-4d90-46ec-88c8-6f5b04c5689e}, !- Schedule Type Limits Name
  ,                                       !- Interpolate to Timestep
  24,                                     !- Hour 1
  0,                                      !- Minute 1
  0.3;                                    !- Value Until Time 1

OS:Schedule:Day,
  {a9beca6b-fc2c-4611-9306-01eb89b88c96}, !- Handle
  Medium Office Electric Equipment Summer Design Day Schedule, !- Name
  ,                                       !- Schedule Type Limits Name
  ,                                       !- Interpolate to Timestep
  6,                                      !- Hour 1
  0,                                      !- Minute 1
  1,                                      !- Value Until Time 1
  24,                                     !- Hour 2
  0,                                      !- Minute 2
  0;                                      !- Value Until Time 2

OS:Schedule:Day,
  {c807702f-6f48-4ccc-9192-82e197763527}, !- Handle
  Medium Office Electric Equipment Summer Design Day Schedule 1, !- Name
  {1ebc047e-4d90-46ec-88c8-6f5b04c5689e}, !- Schedule Type Limits Name
  ,                                       !- Interpolate to Timestep
  6,                                      !- Hour 1
  0,                                      !- Minute 1
  1,                                      !- Value Until Time 1
  24,                                     !- Hour 2
  0,                                      !- Minute 2
  0;                                      !- Value Until Time 2

OS:Schedule:Day,
  {6ab49212-13f9-4f80-ab86-ed48f6e599e2}, !- Handle
  Medium Office Electric Equipment Winter Design Day Schedule, !- Name
  ,                                       !- Schedule Type Limits Name
  ,                                       !- Interpolate to Timestep
  24,                                     !- Hour 1
  0,                                      !- Minute 1
  0;                                      !- Value Until Time 1

OS:Schedule:Day,
  {c6a41497-0f26-4407-bbfc-ffc7158dc209}, !- Handle
  Medium Office Electric Equipment Winter Design Day Schedule 1, !- Name
  {1ebc047e-4d90-46ec-88c8-6f5b04c5689e}, !- Schedule Type Limits Name
  ,                                       !- Interpolate to Timestep
  24,                                     !- Hour 1
  0,                                      !- Minute 1
  0;                                      !- Value Until Time 1

OS:Schedule:Rule,
  {d5bbc463-aeeb-4d44-b0c5-756ba644d44f}, !- Handle
  Medium Office Electric Equipment Schedule Weekdays Rule, !- Name
  {52450b58-1a4b-4452-bf9e-af51f7a05a55}, !- Schedule Ruleset Name
  1,                                      !- Rule Order
  {217e1b74-15f2-4a8d-810f-283b390f9643}, !- Day Schedule Name
  ,                                       !- Apply Sunday
  Yes,                                    !- Apply Monday
  Yes,                                    !- Apply Tuesday
  Yes,                                    !- Apply Wednesday
  Yes,                                    !- Apply Thursday
  Yes;                                    !- Apply Friday

OS:Schedule:Day,
  {217e1b74-15f2-4a8d-810f-283b390f9643}, !- Handle
  Medium Office Electric Equipment Weekdays Schedule, !- Name
  {1ebc047e-4d90-46ec-88c8-6f5b04c5689e}, !- Schedule Type Limits Name
  ,                                       !- Interpolate to Timestep
  8,                                      !- Hour 1
  0,                                      !- Minute 1
  0.4,                                    !- Value Until Time 1
  12,                                     !- Hour 2
  0,                                      !- Minute 2
  0.9,                                    !- Value Until Time 2
  13,                                     !- Hour 3
  0,                                      !- Minute 3
  0.8,                                    !- Value Until Time 3
  17,                                     !- Hour 4
  0,                                      !- Minute 4
  0.9,                                    !- Value Until Time 4
  18,                                     !- Hour 5
  0,                                      !- Minute 5
  0.8,                                    !- Value Until Time 5
  20,                                     !- Hour 6
  0,                                      !- Minute 6
  0.6,                                    !- Value Until Time 6
  22,                                     !- Hour 7
  0,                                      !- Minute 7
  0.5,                                    !- Value Until Time 7
  24,                                     !- Hour 8
  0,                                      !- Minute 8
  0.4;                                    !- Value Until Time 8

OS:Schedule:Rule,
  {55baa361-0532-448e-9a45-aea576bdc0a3}, !- Handle
  Medium Office Electric Equipment Schedule Saturday Rule, !- Name
  {52450b58-1a4b-4452-bf9e-af51f7a05a55}, !- Schedule Ruleset Name
  0,                                      !- Rule Order
  {aa8563c3-f8de-4700-b03f-5316eddda9b5}, !- Day Schedule Name
  ,                                       !- Apply Sunday
  ,                                       !- Apply Monday
  ,                                       !- Apply Tuesday
  ,                                       !- Apply Wednesday