
OS:Version,
  {4f7fe847-015f-4ffe-a526-ec44c76a3122},  ! Handle
  0.8.3;                    ! Version Identifier

OS:SimulationControl,
  {86ec35f1-5f66-48ae-a60f-27acb5b501c9},  ! Handle
  Yes,                      ! Do Zone Sizing Calculation
  Yes,                      ! Do System Sizing Calculation
  ,                         ! Do Plant Sizing Calculation
  No,                       ! Run Simulation for Sizing Periods
  Yes;                      ! Run Simulation for Weather File Run Periods

OS:Timestep,
  {05ed903c-4754-44eb-b6ba-6a9e9450ae26},  ! Handle
  6;                        ! Number of Timesteps per Hour

OS:RunPeriod,
  {c5e48fa7-23df-499e-9ae5-927ed2df709f},  ! Handle
  OS:RunPeriod 1,           ! Name
  1,                        ! Begin Month
  1,                        ! Begin Day of Month
  12,                       ! End Month
  31,                       ! End Day of Month
  No,                       ! Use Weather File Holidays and Special Days
  No,                       ! Use Weather File Daylight Saving Period
  No,                       ! Apply Weekend Holiday Rule
  Yes,                      ! Use Weather File Rain Indicators
  Yes,                      ! Use Weather File Snow Indicators
  1;                        ! Number of Times Runperiod to be Repeated

OS:SurfaceConvectionAlgorithm:Inside,
  {6277f0b9-de57-4929-b74d-85a79c1baf73},  ! Handle
  TARP;                     ! Algorithm

OS:SurfaceConvectionAlgorithm:Outside,
  {1c3fcb2c-4872-4b2d-a6ff-d5a6c2b3d3ac},  ! Handle
  DOE-2;                    ! Algorithm

OS:HeatBalanceAlgorithm,
  {dd27b09c-004a-41c5-8962-28bea3a59ffb},  ! Handle
  ConductionTransferFunction,  ! Algorithm
  200;                      ! Surface Temperature Upper Limit {F}

OS:ZoneAirHeatBalanceAlgorithm,
  {b13337fe-9cd1-4091-98e2-56b2b990ca04},  ! Handle
  AnalyticalSolution;       ! Algorithm

OS:ConvergenceLimits,
  {a3105a30-c391-41f3-96c9-663cc90a8bb4};  ! Handle

OS:ShadowCalculation,
  {50bc7874-0848-4b73-a126-33eeae741aeb},  ! Handle
  7,                        ! Calculation Frequency
  15000;                    ! Maximum Figures in Shadow Overlap Calculations

OS:Site,
  {cdef86e2-ab30-4f15-8511-4ba4cd1c0fc1},  ! Handle
  OS:Site 1,                ! Name
  41.77,                    ! Latitude {deg}
  -87.75,                   ! Longitude {deg}
  -6,                       ! Time Zone {hr}
  190,                      ! Elevation {m}
  ;                         ! Terrain

OS:Site:GroundTemperature:BuildingSurface,
  {18d57757-e6b5-43a7-a735-76114c5cfd9d},  ! Handle
  19.527,                   ! January Ground Temperature {C}
  19.502,                   ! February Ground Temperature {C}
  19.536,                   ! March Ground Temperature {C}
  19.598,                   ! April Ground Temperature {C}
  20.002,                   ! May Ground Temperature {C}
  21.64,                    ! June Ground Temperature {C}
  22.225,                   ! July Ground Temperature {C}
  22.375,                   ! August Ground Temperature {C}
  21.449,                   ! September Ground Temperature {C}
  20.121,                   ! October Ground Temperature {C}
  19.802,                   ! November Ground Temperature {C}
  19.633;                   ! December Ground Temperature {C}

OS:Site:WaterMainsTemperature,
  {dc856d1f-025b-4344-b275-fe282592c319},  ! Handle
  Correlation,              ! Calculation Method
  ,                         ! Temperature Schedule Name
  9.69,                     ! Annual Average Outdoor Air Temperature {C}
  28.1;                     ! Maximum Difference In Monthly Average Outdoor Air Temperatures {deltaC}

OS:SizingPeriod:DesignDay,
  {67c4d4d4-c85c-4052-ab0b-f0a22ceb2ee1},  ! Handle
  OS:SizingPeriod:DesignDay 1,  ! Name
  -20.6,                    ! Maximum Dry-Bulb Temperature {C}
  0,                        ! Daily Dry-Bulb Temperature Range {deltaC}
  -20.6,                    ! Humidity Indicating Conditions at Maximum Dry-Bulb {BasedOnField A3}
  99063,                    ! Barometric Pressure {Pa}
  4.9,                      ! Wind Speed {m/s}
  270,                      ! Wind Direction {deg}
  0,                        ! Sky Clearness
  0,                        ! Rain Indicator
  0,                        ! Snow Indicator
  21,                       ! Day of Month
  1,                        ! Month
  WinterDesignDay,          ! Day Type
  0,                        ! Daylight Saving Time Indicator
  WetBulb,                  ! Humidity Indicating Type
  ,                         ! Humidity Indicating Day Schedule Name
  DefaultMultipliers,       ! Dry-Bulb Temperature Range Modifier Type
  ,                         ! Dry-Bulb Temperature Range Modifier Schedule Name
  AshraeClearSky;           ! Solar Model Indicator

OS:SizingPeriod:DesignDay,
  {6eb80def-0870-43e1-8a7c-6f0e15ffa094},  ! Handle
  OS:SizingPeriod:DesignDay 2,  ! Name
  33.2,                     ! Maximum Dry-Bulb Temperature {C}
  10.7,                     ! Daily Dry-Bulb Temperature Range {deltaC}
  23.8,                     ! Humidity Indicating Conditions at Maximum Dry-Bulb {BasedOnField A3}
  99063,                    ! Barometric Pressure {Pa}
  5.3,                      ! Wind Speed {m/s}
  230,                      ! Wind Direction {deg}
  1,                        ! Sky Clearness
  0,                        ! Rain Indicator
  0,                        ! Snow Indicator
  21,                       ! Day of Month
  7,                        ! Month
  SummerDesignDay,          ! Day Type
  0,                        ! Daylight Saving Time Indicator
  WetBulb,                  ! Humidity Indicating Type
  ,                         ! Humidity Indicating Day Schedule Name
  DefaultMultipliers,       ! Dry-Bulb Temperature Range Modifier Type
  ,                         ! Dry-Bulb Temperature Range Modifier Schedule Name
  AshraeClearSky;           ! Solar Model Indicator

OS:ScheduleTypeLimits,
  {bc6cae87-bf1a-4877-965d-7b1239bd2b26},  ! Handle
  Fraction,                 ! Name
  0,                        ! Lower Limit Value {BasedOnField A3}
  1,                        ! Upper Limit Value {BasedOnField A3}
  CONTINUOUS;               ! Numeric Type

OS:ScheduleTypeLimits,
  {2dde94d2-55b4-46b8-8e50-021112378a8a},  ! Handle
  Any Number;               ! Name

OS:ScheduleTypeLimits,
  {a4c56322-3776-4bd0-9596-f7891b578abf},  ! Handle
  On/Off,                   ! Name
  0,                        ! Lower Limit Value {BasedOnField A3}
  1,                        ! Upper Limit Value {BasedOnField A3}
  DISCRETE;                 ! Numeric Type

OS:ScheduleTypeLimits,
  {1a9c22f7-5a9c-40ed-9def-9ae20048e005},  ! Handle
  Control Type,             ! Name
  0,                        ! Lower Limit Value {BasedOnField A3}
  4,                        ! Upper Limit Value {BasedOnField A3}
  DISCRETE;                 ! Numeric Type

OS:ScheduleTypeLimits,
  {a8c5c25c-0f99-44b0-9277-651347f85ec0},  ! Handle
  Temperature,              ! Name
  -60,                      ! Lower Limit Value {BasedOnField A3}
  200,                      ! Upper Limit Value {BasedOnField A3}
  CONTINUOUS;               ! Numeric Type

OS:DefaultScheduleSet,
  {97f3fa06-a82c-4119-b28e-78b9dc0f8a05},  ! Handle
  Default Schedules,        ! Name
  ,                         ! Hours of Operation Schedule Name
  {b514af0f-12b7-4965-aab7-30eafcf8a8ca},  ! Number of People Schedule Name
  {0ed11d3a-b33c-4753-b099-baa4eb9b6a2f},  ! People Activity Level Schedule Name
  {46f9831e-9bb1-43ca-a3f8-cb314d9e0f9f},  ! Lighting Schedule Name
  {4c11a999-8147-4b56-a425-4382d4ea0cef},  ! Electric Equipment Schedule Name
  {0da1f401-9a1c-4310-9cd2-5d32e9208bd2},  ! Gas Equipment Schedule Name
  {5ede123f-76c2-445e-b9b2-c065daa2776a},  ! Hot Water Equipment Schedule Name
  {0a210c93-6cf3-412f-a8d7-3178da3be1b2},  ! Infiltration Schedule Name
  ,                         ! Steam Equipment Schedule Name
  ;                         ! Other Equipment Schedule Name

OS:Schedule:Ruleset,
  {b514af0f-12b7-4965-aab7-30eafcf8a8ca},  ! Handle
  Medium Office Number of People Schedule,  ! Name
  ,                         ! Schedule Type Limits Name
  {f05fbc0a-4b19-4402-b9a5-d89e053d496f},  ! Default Day Schedule Name
  {b74c5fe2-9a61-46b1-8b72-03ed64583c3f};  ! Summer Design Day Schedule Name

OS:Schedule:Day,
  {f05fbc0a-4b19-4402-b9a5-d89e053d496f},  ! Handle
  Medium Office Number of People All Other Days Schedule,  ! Name
  {bc6cae87-bf1a-4877-965d-7b1239bd2b26},  ! Schedule Type Limits Name
  ,                         ! Interpolate to Timestep
  24,                       ! Hour 1
  0,                        ! Minute 1
  0;                        ! Value Until Time 1

OS:Schedule:Day,
  {1f237c3e-1a53-4b41-aaf7-5500efb86968},  ! Handle
  Medium Office Number of People Summer Design Day Schedule,  ! Name
  {bc6cae87-bf1a-4877-965d-7b1239bd2b26},  ! Schedule Type Limits Name
  ,                         ! Interpolate to Timestep
  6,                        ! Hour 1
  0,                        ! Minute 1
  0,                        ! Value Until Time 1
  22,                       ! Hour 2
  0,                        ! Minute 2
  1,                        ! Value Until Time 2
  24,                       ! Hour 3
  0,                        ! Minute 3
  0.05;                     ! Value Until Time 3

OS:Schedule:Day,
  {b74c5fe2-9a61-46b1-8b72-03ed64583c3f},  ! Handle
  OS:Schedule:Day 1,        ! Name
  {bc6cae87-bf1a-4877-965d-7b1239bd2b26},  ! Schedule Type Limits Name
  ,                         ! Interpolate to Timestep
  6,                        ! Hour 1
  0,                        ! Minute 1
  0,                        ! Value Until Time 1
  22,                       ! Hour 2
  0,                        ! Minute 2
  1,                        ! Value Until Time 2
  24,                       ! Hour 3
  0,                        ! Minute 3
  0.05;                     ! Value Until Time 3

OS:Schedule:Rule,
  {1801fe6b-f7c7-4c67-8932-43139f567986},  ! Handle
  Medium Office Number of People Schedule Weekdays Rule,  ! Name
  {b514af0f-12b7-4965-aab7-30eafcf8a8ca},  ! Schedule Ruleset Name
  1,                        ! Rule Order
  {6eb01d2c-3d94-4995-a5dd-5f065efbd478},  ! Day Schedule Name
  ,                         ! Apply Sunday
  Yes,                      ! Apply Monday
  Yes,                      ! Apply Tuesday
  Yes,                      ! Apply Wednesday
  Yes,                      ! Apply Thursday
  Yes;                      ! Apply Friday

OS:Schedule:Day,
  {6eb01d2c-3d94-4995-a5dd-5f065efbd478},  ! Handle
  Medium Office Number of People Weekdays Schedule,  ! Name
  {bc6cae87-bf1a-4877-965d-7b1239bd2b26},  ! Schedule Type Limits Name
  ,                         ! Interpolate to Timestep
  6,                        ! Hour 1
  0,                        ! Minute 1
  0,                        ! Value Until Time 1
  7,                        ! Hour 2
  0,                        ! Minute 2
  0.1,                      ! Value Until Time 2
  8,                        ! Hour 3
  0,                        ! Minute 3
  0.2,                      ! Value Until Time 3
  12,                       ! Hour 4
  0,                        ! Minute 4
  0.95,                     ! Value Until Time 4
  13,                       ! Hour 5
  0,                        ! Minute 5
  0.5,                      ! Value Until Time 5
  17,                       ! Hour 6
  0,                        ! Minute 6
  0.95,                     ! Value Until Time 6
  18,                       ! Hour 7
  0,                        ! Minute 7
  0.7,                      ! Value Until Time 7
  20,                       ! Hour 8
  0,                        ! Minute 8
  0.4,                      ! Value Until Time 8
  22,                       ! Hour 9
  0,                        ! Minute 9
  0.1,                      ! Value Until Time 9
  24,                       ! Hour 10
  0,                        ! Minute 10
  0.05;                     ! Value Until Time 10

OS:Schedule:Rule,
  {36595245-7dcf-4367-ab93-c3b63ec37000},  ! Handle
  Medium Office Number of People Schedule Saturday Rule,  ! Name
  {b514af0f-12b7-4965-aab7-30eafcf8a8ca},  ! Schedule Ruleset Name
  0,                        ! Rule Order
  {907e6f44-75f9-4f6c-a2ed-9929ba03a843},  ! Day Schedule Name
  ,                         ! Apply Sunday
  ,                         ! Apply Monday
  ,                         ! Apply Tuesday
  ,                         ! Apply Wednesday
  ,                         ! Apply Thursday
  ,                         ! Apply Friday
  Yes;                      ! Apply Saturday

OS:Schedule:Day,
  {907e6f44-75f9-4f6c-a2ed-9929ba03a843},  ! Handle
  Medium Office Number of People Saturday Schedule,  ! Name
  {bc6cae87-bf1a-4877-965d-7b1239bd2b26},  ! Schedule Type Limits Name
  ,                         ! Interpolate to Timestep
  6,                        ! Hour 1
  0,                        ! Minute 1
  0,                        ! Value Until Time 1
  8,                        ! Hour 2
  0,                        ! Minute 2
  0.1,                      ! Value Until Time 2
  14,                       ! Hour 3
  0,                        ! Minute 3
  0.5,                      ! Value Until Time 3
  17,                       ! Hour 4
  0,                        ! Minute 4
  0.1,                      ! Value Until Time 4
  24,                       ! Hour 5
  0,                        ! Minute 5
  0;                        ! Value Until Time 5

OS:Schedule:Ruleset,
  {0ed11d3a-b33c-4753-b099-baa4eb9b6a2f},  ! Handle
  Medium Office People Activity Level Schedule,  ! Name
  ,                         ! Schedule Type Limits Name
  {b3b3ae16-72f4-4470-93a6-553cad1acde6};  ! Default Day Schedule Name

OS:Schedule:Day,
  {b3b3ae16-72f4-4470-93a6-553cad1acde6},  ! Handle
  Medium Office People Activity Level All Days Schedule,  ! Name
  {2dde94d2-55b4-46b8-8e50-021112378a8a},  ! Schedule Type Limits Name
  ,                         ! Interpolate to Timestep
  24,                       ! Hour 1
  0,                        ! Minute 1
  120;                      ! Value Until Time 1

OS:Schedule:Ruleset,
  {46f9831e-9bb1-43ca-a3f8-cb314d9e0f9f},  ! Handle
  Medium Office Lighting Schedule,  ! Name
  ,                         ! Schedule Type Limits Name
  {6d7519d7-503a-4b50-9c83-6aeab1d2ce25},  ! Default Day Schedule Name
  {93073151-4ba6-45cf-8545-2b1aeb5fc2c1},  ! Summer Design Day Schedule Name
  {822a5099-5380-4918-9b54-67b51cc47836};  ! Winter Design Day Schedule Name

OS:Schedule:Day,
  {6d7519d7-503a-4b50-9c83-6aeab1d2ce25},  ! Handle
  Medium Office Lighting All Other Days Schedule,  ! Name
  {bc6cae87-bf1a-4877-965d-7b1239bd2b26},  ! Schedule Type Limits Name
  ,                         ! Interpolate to Timestep
  24,                       ! Hour 1
  0,                        ! Minute 1
  0.05;                     ! Value Until Time 1

OS:Schedule:Day,
  {06118999-5036-43f5-8be5-43ede4536441},  ! Handle
  Medium Office Lighting Summer Design Day Schedule,  ! Name
  {bc6cae87-bf1a-4877-965d-7b1239bd2b26},  ! Schedule Type Limits Name
  ,                         ! Interpolate to Timestep
  6,                        ! Hour 1
  0,                        ! Minute 1
  1,                        ! Value Until Time 1
  24,                       ! Hour 2
  0,                        ! Minute 2
  0;                        ! Value Until Time 2

OS:Schedule:Day,
  {93073151-4ba6-45cf-8545-2b1aeb5fc2c1},  ! Handle
  OS:Schedule:Day 2,        ! Name
  {bc6cae87-bf1a-4877-965d-7b1239bd2b26},  ! Schedule Type Limits Name
  ,                         ! Interpolate to Timestep
  6,                        ! Hour 1
  0,                        ! Minute 1
  1,                        ! Value Until Time 1
  24,                       ! Hour 2
  0,                        ! Minute 2
  0;                        ! Value Until Time 2

OS:Schedule:Day,
  {e433cdf8-b294-469c-ac4d-1d7a4763c28d},  ! Handle
  Medium Office Lighting Winter Design Day Schedule,  ! Name
  {bc6cae87-bf1a-4877-965d-7b1239bd2b26},  ! Schedule Type Limits Name
  ,                         ! Interpolate to Timestep
  24,                       ! Hour 1
  0,                        ! Minute 1
  0;                        ! Value Until Time 1

OS:Schedule:Day,
  {822a5099-5380-4918-9b54-67b51cc47836},  ! Handle
  OS:Schedule:Day 3,        ! Name
  {bc6cae87-bf1a-4877-965d-7b1239bd2b26},  ! Schedule Type Limits Name
  ,                         ! Interpolate to Timestep
  24,                       ! Hour 1
  0,                        ! Minute 1
  0;                        ! Value Until Time 1

OS:Schedule:Rule,
  {38135e00-8d6f-4d0a-b8a5-a0be66513cb6},  ! Handle
  Medium Office Lighting Schedule Weekdays Rule,  ! Name
  {46f9831e-9bb1-43ca-a3f8-cb314d9e0f9f},  ! Schedule Ruleset Name
  1,                        ! Rule Order
  {2e9536b8-d708-4562-8a45-5c9a750bffc1},  ! Day Schedule Name
  ,                         ! Apply Sunday
  Yes,                      ! Apply Monday
  Yes,                      ! Apply Tuesday
  Yes,                      ! Apply Wednesday
  Yes,                      ! Apply Thursday
  Yes;                      ! Apply Friday

OS:Schedule:Day,
  {2e9536b8-d708-4562-8a45-5c9a750bffc1},  ! Handle
  Medium Office Lighting Weekdays Schedule,  ! Name
  {bc6cae87-bf1a-4877-965d-7b1239bd2b26},  ! Schedule Type Limits Name
  ,                         ! Interpolate to Timestep
  5,                        ! Hour 1
  0,                        ! Minute 1
  0.05,                     ! Value Until Time 1
  7,                        ! Hour 2
  0,                        ! Minute 2
  0.1,                      ! Value Until Time 2
  8,                        ! Hour 3
  0,                        ! Minute 3
  0.3,                      ! Value Until Time 3
  17,                       ! Hour 4
  0,                        ! Minute 4
  0.9,                      ! Value Until Time 4
  18,                       ! Hour 5
  0,                        ! Minute 5
  0.7,                      ! Value Until Time 5
  20,                       ! Hour 6
  0,                        ! Minute 6
  0.5,                      ! Value Until Time 6
  22,                       ! Hour 7
  0,                        ! Minute 7
  0.3,                      ! Value Until Time 7
  23,                       ! Hour 8
  0,                        ! Minute 8
  0.1,                      ! Value Until Time 8
  24,                       ! Hour 9
  0,                        ! Minute 9
  0.05;                     ! Value Until Time 9

OS:Schedule:Rule,
  {0bc5389d-c1b3-435a-8e93-febf4443a428},  ! Handle
  Medium Office Lighting Schedule Saturday Rule,  ! Name
  {46f9831e-9bb1-43ca-a3f8-cb314d9e0f9f},  ! Schedule Ruleset Name
  0,                        ! Rule Order
  {784c6be0-6b05-43a3-95ed-e29f8e17290d},  ! Day Schedule Name
  ,                         ! Apply Sunday
  ,                         ! Apply Monday
  ,                         ! Apply Tuesday
  ,                         ! Apply Wednesday
  ,                         ! Apply Thursday
  ,                         ! Apply Friday
  Yes;                      ! Apply Saturday

OS:Schedule:Day,
  {784c6be0-6b05-43a3-95ed-e29f8e17290d},  ! Handle
  Medium Office Lighting Saturday Schedule,  ! Name
  {bc6cae87-bf1a-4877-965d-7b1239bd2b26},  ! Schedule Type Limits Name
  ,                         ! Interpolate to Timestep
  6,                        ! Hour 1
  0,                        ! Minute 1
  0.05,                     ! Value Until Time 1
  8,                        ! Hour 2
  0,                        ! Minute 2
  0.1,                      ! Value Until Time 2
  14,                       ! Hour 3
  0,                        ! Minute 3
  0.5,                      ! Value Until Time 3
  17,                       ! Hour 4
  0,                        ! Minute 4
  0.15,                     ! Value Until Time 4
  24,                       ! Hour 5
  0,                        ! Minute 5
  0.05;                     ! Value Until Time 5

OS:Schedule:Ruleset,
  {4c11a999-8147-4b56-a425-4382d4ea0cef},  ! Handle
  Medium Office Electric Equipment Schedule,  ! Name
  ,                         ! Schedule Type Limits Name
  {4a6df9bc-88aa-41d7-bc72-21b4f0472259},  ! Default Day Schedule Name
  {36d4bbc6-2055-4267-8a07-cf7bdb1ed778},  ! Summer Design Day Schedule Name
  {0849ebe9-bb34-457b-b0b1-bf1d280974f6};  ! Winter Design Day Schedule Name

OS:Schedule:Day,
  {4a6df9bc-88aa-41d7-bc72-21b4f0472259},  ! Handle
  Medium Office Electric Equipment All Other Days Schedule,  ! Name
  {bc6cae87-bf1a-4877-965d-7b1239bd2b26},  ! Schedule Type Limits Name
  ,                         ! Interpolate to Timestep
  24,                       ! Hour 1
  0,                        ! Minute 1
  0.3;                      ! Value Until Time 1

OS:Schedule:Day,
  {3623aac4-d782-4be7-a109-e4643b76bb52},  ! Handle
  Medium Office Electric Equipment Summer Design Day Schedule,  ! Name
  {bc6cae87-bf1a-4877-965d-7b1239bd2b26},  ! Schedule Type Limits Name
  ,                         ! Interpolate to Timestep
  6,                        ! Hour 1
  0,                        ! Minute 1
  1,                        ! Value Until Time 1
  24,                       ! Hour 2
  0,                        ! Minute 2
  0;                        ! Value Until Time 2

OS:Schedule:Day,
  {36d4bbc6-2055-4267-8a07-cf7bdb1ed778},  ! Handle
  OS:Schedule:Day 4,        ! Name
  {bc6cae87-bf1a-4877-965d-7b1239bd2b26},  ! Schedule Type Limits Name
  ,                         ! Interpolate to Timestep
  6,                        ! Hour 1
  0,                        ! Minute 1
  1,                        ! Value Until Time 1
  24,                       ! Hour 2
  0,                        ! Minute 2
  0;                        ! Value Until Time 2

OS:Schedule:Day,
  {b50ee59e-f2ef-47bd-9b2d-8eefc335a071},  ! Handle
  Medium Office Electric Equipment Winter Design Day Schedule,  ! Name
  {bc6cae87-bf1a-4877-965d-7b1239bd2b26},  ! Schedule Type Limits Name
  ,                         ! Interpolate to Timestep
  24,                       ! Hour 1
  0,                        ! Minute 1
  0;                        ! Value Until Time 1

OS:Schedule:Day,
  {0849ebe9-bb34-457b-b0b1-bf1d280974f6},  ! Handle
  OS:Schedule:Day 5,        ! Name
  {bc6cae87-bf1a-4877-965d-7b1239bd2b26},  ! Schedule Type Limits Name
  ,                         ! Interpolate to Timestep
  24,                       ! Hour 1
  0,                        ! Minute 1
  0;                        ! Value Until Time 1

OS:Schedule:Rule,
  {3dedd1c3-9c06-446e-80b6-49338e9aee6e},  ! Handle
  Medium Office Electric Equipment Schedule Weekdays Rule,  ! Name
  {4c11a999-8147-4b56-a425-4382d4ea0cef},  ! Schedule Ruleset Name
  1,                        ! Rule Order
  {16ffedca-0ade-4e3a-bc16-bc7c9ef6aa77},  ! Day Schedule Name
  ,                         ! Apply Sunday
  Yes,                      ! Apply Monday
  Yes,                      ! Apply Tuesday
  Yes,                      ! Apply Wednesday
  Yes,                      ! Apply Thursday
  Yes;                      ! Apply Friday

OS:Schedule:Day,
  {16ffedca-0ade-4e3a-bc16-bc7c9ef6aa77},  ! Handle
  Medium Office Electric Equipment Weekdays Schedule,  ! Name
  {bc6cae87-bf1a-4877-965d-7b1239bd2b26},  ! Schedule Type Limits Name
  ,                         ! Interpolate to Timestep
  8,                        ! Hour 1
  0,                        ! Minute 1
  0.4,                      ! Value Until Time 1
  12,                       ! Hour 2
  0,                        ! Minute 2
  0.9,                      ! Value Until Time 2
  13,                       ! Hour 3
  0,                        ! Minute 3
  0.8,                      ! Value Until Time 3
  17,                       ! Hour 4
  0,                        ! Minute 4
  0.9,                      ! Value Until Time 4
  18,                       ! Hour 5
  0,                        ! Minute 5
  0.8,                      ! Value Until Time 5
  20,                       ! Hour 6
  0,                        ! Minute 6
  0.6,                      ! Value Until Time 6
  22,                       ! Hour 7
  0,                        ! Minute 7
  0.5,                      ! Value Until Time 7
  24,                       ! Hour 8
  0,                        ! Minute 8
  0.4;                      ! Value Until Time 8

OS:Schedule:Rule,
  {42f7a87a-fd32-45f0-92fd-95b697cb2a28},  ! Handle
  Medium Office Electric Equipment Schedule Saturday Rule,  ! Name
  {4c11a999-8147-4b56-a425-4382d4ea0cef},  ! Schedule Ruleset Name
  0,                        ! Rule Order
  {f2cca84d-9eb9-42e7-8bf9-99ab018dd211},  ! Day Schedule Name
  ,                         ! Apply Sunday
  ,                         ! Apply Monday
  ,                         ! Apply Tuesday
  ,                         ! Apply Wednesday
  ,                         ! Apply Thursday
  ,                         ! Apply Friday
  Yes;                      ! Apply Saturday

OS:Schedule:Day,
  {f2cca84d-9eb9-42e7-8bf9-99ab018dd211},  ! Handle
  Medium Office Electric Equipment Saturday Schedule,  ! Name
  {bc6cae87-bf1a-4877-965d-7b1239bd2b26},  ! Schedule Type Limits Name
  ,                         ! Interpolate to Timestep
  6,                        ! Hour 1
  0,                        ! Minute 1
  0.3,                      ! Value Until Time 1
  8,                        ! Hour 2
  0,                        ! Minute 2
  0.4,                      ! Value Until Time 2
  14,                       ! Hour 3
  0,                        ! Minute 3
  0.5,                      ! Value Until Time 3
  17,                       ! Hour 4
  0,                        ! Minute 4
  0.35,                     ! Value Until Time 4
  24,                       ! Hour 5
  0,                        ! Minute 5
  0.3;                      ! Value Until Time 5

OS:Schedule:Ruleset,
  {0da1f401-9a1c-4310-9cd2-5d32e9208bd2},  ! Handle
  Medium Office Gas Equipment Schedule,  ! Name
  ,                         ! Schedule Type Limits Name
  {08301be8-c547-4178-a971-98afdf9524d2},  ! Default Day Schedule Name
  {19c2fcd1-e80b-49d9-b04f-4a3a85da0e44},  ! Summer Design Day Schedule Name
  {e90db5a9-f2c3-44eb-9226-4faafe773a58};  ! Winter Design Day Schedule Name

OS:Schedule:Day,
  {08301be8-c547-4178-a971-98afdf9524d2},  ! Handle
  Medium Office Gas Equipment All Other Days Schedule,  ! Name
  {bc6cae87-bf1a-4877-965d-7b1239bd2b26},  ! Schedule Type Limits Name
  ,                         ! Interpolate to Timestep
  24,                       ! Hour 1
  0,                        ! Minute 1
  0.3;                      ! Value Until Time 1

OS:Schedule:Day,
  {1aa4ae6a-9653-4389-bc5a-967c2268ddea},  ! Handle
  Medium Office Gas Equipment Summer Design Day Schedule,  ! Name
  {bc6cae87-bf1a-4877-965d-7b1239bd2b26},  ! Schedule Type Limits Name
  ,                         ! Interpolate to Timestep
  6,                        ! Hour 1
  0,                        ! Minute 1
  1,                        ! Value Until Time 1
  24,                       ! Hour 2
  0,                        ! Minute 2
  0;                        ! Value Until Time 2

OS:Schedule:Day,
  {19c2fcd1-e80b-49d9-b04f-4a3a85da0e44},  ! Handle
  OS:Schedule:Day 6,        ! Name
  {bc6cae87-bf1a-4877-965d-7b1239bd2b26},  ! Schedule Type Limits Name
  ,                         ! Interpolate to Timestep
  6,                        ! Hour 1
  0,                        ! Minute 1
  1,                        ! Value Until Time 1
  24,                       ! Hour 2
  0,                        ! Minute 2
  0;                        ! Value Until Time 2

OS:Schedule:Day,
  {df8ed3c9-f59b-4e33-8001-d52eec6545fc},  ! Handle
  Medium Office Gas Equipment Winter Design Day Schedule,  ! Name
  {bc6cae87-bf1a-4877-965d-7b1239bd2b26},  ! Schedule Type Limits Name
  ,                         ! Interpolate to Timestep
  24,                       ! Hour 1
  0,                        ! Minute 1
  0;                        ! Value Until Time 1

OS:Schedule:Day,
  {e90db5a9-f2c3-44eb-9226-4faafe773a58},  ! Handle
  OS:Schedule:Day 7,        ! Name
  {bc6cae87-bf1a-4877-965d-7b1239bd2b26},  ! Schedule Type Limits Name
  ,                         ! Interpolate to Timestep
  24,                       ! Hour 1
  0,                        ! Minute 1
  0;                        ! Value Until Time 1

OS:Schedule:Rule,
  {7ed1aa84-e966-47f3-8b69-3233119b9bac},  ! Handle
  Medium Office Gas Equipment Schedule Weekdays Rule,  ! Name
  {0da1f401-9a1c-4310-9cd2-5d32e9208bd2},  ! Schedule Ruleset Name
  1,                        ! Rule Order
  {cab75881-02c0-40fb-9f9a-edd04ee73375},  ! Day Schedule Name
  ,                         ! Apply Sunday
  Yes,                      ! Apply Monday
  Yes,                      ! Apply Tuesday
  Yes,                      ! Apply Wednesday
  Yes,                      ! Apply Thursday
  Yes;                      ! Apply Friday

OS:Schedule:Day,
  {cab75881-02c0-40fb-9f9a-edd04ee73375},  ! Handle
  Medium Office Gas Equipment Weekdays Schedule,  ! Name
  {bc6cae87-bf1a-4877-965d-7b1239bd2b26},  ! Schedule Type Limits Name
  ,                         ! Interpolate to Timestep
  8,                        ! Hour 1
  0,                        ! Minute 1
  0.4,                      ! Value Until Time 1
  12,                       ! Hour 2
  0,                        ! Minute 2
  0.9,                      ! Value Until Time 2
  13,                       ! Hour 3
  0,                        ! Minute 3
  0.8,                      ! Value Until Time 3
  17,                       ! Hour 4
  0,                        ! Minute 4
  0.9,                      ! Value Until Time 4
  18,                       ! Hour 5
  0,                        ! Minute 5
  0.8,                      ! Value Until Time 5
  20,                       ! Hour 6