
OS:Version,
  {87c339b3-48ed-4e11-8538-9471ee495d27}, !- Handle
  1.8.0;                                  !- Version Identifier

OS:SimulationControl,
  {7b8de6ac-a77f-43b8-aa8a-9852a36b21cc}, !- Handle
  Yes,                                    !- Do Zone Sizing Calculation
  Yes,                                    !- Do System Sizing Calculation
  ,                                       !- Do Plant Sizing Calculation
  No,                                     !- Run Simulation for Sizing Periods
  Yes;                                    !- Run Simulation for Weather File Run Periods

OS:Timestep,
  {f6343461-aa6b-4346-ba8d-f281ceafb4a0}, !- Handle
  6;                                      !- Number of Timesteps per Hour

OS:RunPeriod,
  {129878c7-3f96-4b35-8a75-5d6119dae584}, !- Handle
  Run Period 1,                           !- Name
  1,                                      !- Begin Month
  1,                                      !- Begin Day of Month
  12,                                     !- End Month
  31,                                     !- End Day of Month
  No,                                     !- Use Weather File Holidays and Special Days
  No,                                     !- Use Weather File Daylight Saving Period
  No,                                     !- Apply Weekend Holiday Rule
  Yes,                                    !- Use Weather File Rain Indicators
  Yes,                                    !- Use Weather File Snow Indicators
  1;                                      !- Number of Times Runperiod to be Repeated

OS:SurfaceConvectionAlgorithm:Inside,
  {e13df229-625c-4c59-90da-c4c1aeb47736}, !- Handle
  TARP;                                   !- Algorithm

OS:SurfaceConvectionAlgorithm:Outside,
  {cc002138-e7c3-410c-93e3-fa600dbe2734}, !- Handle
  DOE-2;                                  !- Algorithm

OS:HeatBalanceAlgorithm,
  {96a7d645-7cf3-4f39-ac19-913f6cf95fbc}, !- Handle
  ConductionTransferFunction,             !- Algorithm
  200;                                    !- Surface Temperature Upper Limit {F}

OS:ZoneAirHeatBalanceAlgorithm,
  {33818aa8-d7d1-47d9-a8b2-f648d4f37a10}, !- Handle
  AnalyticalSolution;                     !- Algorithm

OS:ConvergenceLimits,
  {f44b0d55-1d10-4af5-b12f-b100da0475c3}; !- Handle

OS:ShadowCalculation,
  {3d7617b2-20e8-488a-a46c-89dfe3df88c9}, !- Handle
  7,                                      !- Calculation Frequency
  15000;                                  !- Maximum Figures in Shadow Overlap Calculations

OS:Site,
  {723eec4c-4710-40a3-8dba-1ea01d12e878}, !- Handle
  Site 1,                                 !- Name
  41.77,                                  !- Latitude {deg}
  -87.75,                                 !- Longitude {deg}
  -6,                                     !- Time Zone {hr}
  190,                                    !- Elevation {m}
  ;                                       !- Terrain

OS:Site:GroundTemperature:BuildingSurface,
  {0d06c62f-2686-4037-9ab2-36aeb8cb7410}, !- Handle
  19.527,                                 !- January Ground Temperature {C}
  19.502,                                 !- February Ground Temperature {C}
  19.536,                                 !- March Ground Temperature {C}
  19.598,                                 !- April Ground Temperature {C}
  20.002,                                 !- May Ground Temperature {C}
  21.64,                                  !- June Ground Temperature {C}
  22.225,                                 !- July Ground Temperature {C}
  22.375,                                 !- August Ground Temperature {C}
  21.449,                                 !- September Ground Temperature {C}
  20.121,                                 !- October Ground Temperature {C}
  19.802,                                 !- November Ground Temperature {C}
  19.633;                                 !- December Ground Temperature {C}

OS:Site:WaterMainsTemperature,
  {16cc1a9f-332a-4637-b656-406441cfb0b9}, !- Handle
  Correlation,                            !- Calculation Method
  ,                                       !- Temperature Schedule Name
  9.69,                                   !- Annual Average Outdoor Air Temperature {C}
  28.1;                                   !- Maximum Difference In Monthly Average Outdoor Air Temperatures {deltaC}

OS:SizingPeriod:DesignDay,
  {0a05de68-4807-4c52-8969-f8a98801ceff}, !- Handle
  Sizing Period Design Day 1,             !- Name
  -20.6,                                  !- Maximum Dry-Bulb Temperature {C}
  0,                                      !- Daily Dry-Bulb Temperature Range {deltaC}
  -20.6,                                  !- Humidity Indicating Conditions at Maximum Dry-Bulb {BasedOnField A3}
  99063,                                  !- Barometric Pressure {Pa}
  4.9,                                    !- Wind Speed {m/s}
  270,                                    !- Wind Direction {deg}
  0,                                      !- Sky Clearness
  0,                                      !- Rain Indicator
  0,                                      !- Snow Indicator
  21,                                     !- Day of Month
  1,                                      !- Month
  WinterDesignDay,                        !- Day Type
  0,                                      !- Daylight Saving Time Indicator
  WetBulb,                                !- Humidity Indicating Type
  ,                                       !- Humidity Indicating Day Schedule Name
  DefaultMultipliers,                     !- Dry-Bulb Temperature Range Modifier Type
  ,                                       !- Dry-Bulb Temperature Range Modifier Schedule Name
  AshraeClearSky;                         !- Solar Model Indicator

OS:SizingPeriod:DesignDay,
  {3b190b97-52b7-4693-9aa7-00a8db4d828b}, !- Handle
  Sizing Period Design Day 2,             !- Name
  33.2,                                   !- Maximum Dry-Bulb Temperature {C}
  10.7,                                   !- Daily Dry-Bulb Temperature Range {deltaC}
  23.8,                                   !- Humidity Indicating Conditions at Maximum Dry-Bulb {BasedOnField A3}
  99063,                                  !- Barometric Pressure {Pa}
  5.3,                                    !- Wind Speed {m/s}
  230,                                    !- Wind Direction {deg}
  1,                                      !- Sky Clearness
  0,                                      !- Rain Indicator
  0,                                      !- Snow Indicator
  21,                                     !- Day of Month
  7,                                      !- Month
  SummerDesignDay,                        !- Day Type
  0,                                      !- Daylight Saving Time Indicator
  WetBulb,                                !- Humidity Indicating Type
  ,                                       !- Humidity Indicating Day Schedule Name
  DefaultMultipliers,                     !- Dry-Bulb Temperature Range Modifier Type
  ,                                       !- Dry-Bulb Temperature Range Modifier Schedule Name
  AshraeClearSky;                         !- Solar Model Indicator

OS:ScheduleTypeLimits,
  {10176a4e-f64b-4458-830a-1e4dacab7735}, !- Handle
  Temperature,                            !- Name
  -60,                                    !- Lower Limit Value {BasedOnField A4}
  200,                                    !- Upper Limit Value {BasedOnField A4}
  CONTINUOUS,                             !- Numeric Type
  Temperature;                            !- Unit Type

OS:DefaultScheduleSet,
  {00a0262d-7019-4ad9-a21a-a533eee6952c}, !- Handle
  Default Schedules,                      !- Name
  ,                                       !- Hours of Operation Schedule Name
  {66ee4288-ef14-4dd6-a96b-cbc8da4f34c9}, !- Number of People Schedule Name
  {d0bf3f48-ccc8-4141-951d-17b1a7b5bef2}, !- People Activity Level Schedule Name
  {f8fd4299-f677-4eb0-beaf-cc815c2a97cc}, !- Lighting Schedule Name
  {d4f024d8-99c6-41d7-b9f1-b6e45bf4e7a1}, !- Electric Equipment Schedule Name
  {d751b772-222b-4c1c-8dbe-6127bf941aae}, !- Gas Equipment Schedule Name
  {0503dd8d-e57a-41d5-8928-3b06e26916d2}, !- Hot Water Equipment Schedule Name
  {71fd206b-5631-4963-b5a7-e8cbdbc2028f}, !- Infiltration Schedule Name
  ,                                       !- Steam Equipment Schedule Name
  ;                                       !- Other Equipment Schedule Name

OS:Schedule:Ruleset,
  {66ee4288-ef14-4dd6-a96b-cbc8da4f34c9}, !- Handle
  Medium Office Number of People Schedule, !- Name
  {6543842b-d521-4ad4-9b38-a79dd16fadb8}, !- Schedule Type Limits Name
  {36fe6eb9-18f8-4fc5-b125-3da59e371ff2}, !- Default Day Schedule Name
  {10fa21f6-33d5-49fe-ab9c-180bfff2c9a4}; !- Summer Design Day Schedule Name

OS:Schedule:Day,
  {36fe6eb9-18f8-4fc5-b125-3da59e371ff2}, !- Handle
  Medium Office Number of People All Other Days Schedule, !- Name
  {6543842b-d521-4ad4-9b38-a79dd16fadb8}, !- Schedule Type Limits Name
  ,                                       !- Interpolate to Timestep
  24,                                     !- Hour 1
  0,                                      !- Minute 1
  0;                                      !- Value Until Time 1

OS:Schedule:Day,
  {984b1460-774c-4a95-b201-9c7a4af114b9}, !- Handle
  Medium Office Number of People Summer Design Day Schedule, !- Name
  ,                                       !- Schedule Type Limits Name
  ,                                       !- Interpolate to Timestep
  6,                                      !- Hour 1
  0,                                      !- Minute 1
  0,                                      !- Value Until Time 1
  22,                                     !- Hour 2
  0,                                      !- Minute 2
  1,                                      !- Value Until Time 2
  24,                                     !- Hour 3
  0,                                      !- Minute 3
  0.05;                                   !- Value Until Time 3

OS:Schedule:Day,
  {10fa21f6-33d5-49fe-ab9c-180bfff2c9a4}, !- Handle
  Medium Office Number of People Summer Design Day Schedule 1, !- Name
  {6543842b-d521-4ad4-9b38-a79dd16fadb8}, !- Schedule Type Limits Name
  ,                                       !- Interpolate to Timestep
  6,                                      !- Hour 1
  0,                                      !- Minute 1
  0,                                      !- Value Until Time 1
  22,                                     !- Hour 2
  0,                                      !- Minute 2
  1,                                      !- Value Until Time 2
  24,                                     !- Hour 3
  0,                                      !- Minute 3
  0.05;                                   !- Value Until Time 3

OS:Schedule:Rule,
  {37dbe318-cc16-40d2-b4b2-825bd7e63090}, !- Handle
  Medium Office Number of People Schedule Weekdays Rule, !- Name
  {66ee4288-ef14-4dd6-a96b-cbc8da4f34c9}, !- Schedule Ruleset Name
  1,                                      !- Rule Order
  {339a5e08-b905-4c03-a084-670ad4f8edea}, !- Day Schedule Name
  ,                                       !- Apply Sunday
  Yes,                                    !- Apply Monday
  Yes,                                    !- Apply Tuesday
  Yes,                                    !- Apply Wednesday
  Yes,                                    !- Apply Thursday
  Yes;                                    !- Apply Friday

OS:Schedule:Day,
  {339a5e08-b905-4c03-a084-670ad4f8edea}, !- Handle
  Medium Office Number of People Weekdays Schedule, !- Name
  {6543842b-d521-4ad4-9b38-a79dd16fadb8}, !- Schedule Type Limits Name
  ,                                       !- Interpolate to Timestep
  6,                                      !- Hour 1
  0,                                      !- Minute 1
  0,                                      !- Value Until Time 1
  7,                                      !- Hour 2
  0,                                      !- Minute 2
  0.1,                                    !- Value Until Time 2
  8,                                      !- Hour 3
  0,                                      !- Minute 3
  0.2,                                    !- Value Until Time 3
  12,                                     !- Hour 4
  0,                                      !- Minute 4
  0.95,                                   !- Value Until Time 4
  13,                                     !- Hour 5
  0,                                      !- Minute 5
  0.5,                                    !- Value Until Time 5
  17,                                     !- Hour 6
  0,                                      !- Minute 6
  0.95,                                   !- Value Until Time 6
  18,                                     !- Hour 7
  0,                                      !- Minute 7
  0.7,                                    !- Value Until Time 7
  20,                                     !- Hour 8
  0,                                      !- Minute 8
  0.4,                                    !- Value Until Time 8
  22,                                     !- Hour 9
  0,                                      !- Minute 9
  0.1,                                    !- Value Until Time 9
  24,                                     !- Hour 10
  0,                                      !- Minute 10
  0.05;                                   !- Value Until Time 10

OS:Schedule:Rule,
  {248d0573-d1a1-46de-9ffe-8351ee2f5690}, !- Handle
  Medium Office Number of People Schedule Saturday Rule, !- Name
  {66ee4288-ef14-4dd6-a96b-cbc8da4f34c9}, !- Schedule Ruleset Name
  0,                                      !- Rule Order
  {4ab91b31-c0a7-4f3b-8eb2-5f65c9499a3a}, !- Day Schedule Name
  ,                                       !- Apply Sunday
  ,                                       !- Apply Monday
  ,                                       !- Apply Tuesday
  ,                                       !- Apply Wednesday
  ,                                       !- Apply Thursday
  ,                                       !- Apply Friday
  Yes;                                    !- Apply Saturday

OS:Schedule:Day,
  {4ab91b31-c0a7-4f3b-8eb2-5f65c9499a3a}, !- Handle
  Medium Office Number of People Saturday Schedule, !- Name
  {6543842b-d521-4ad4-9b38-a79dd16fadb8}, !- Schedule Type Limits Name
  ,                                       !- Interpolate to Timestep
  6,                                      !- Hour 1
  0,                                      !- Minute 1
  0,                                      !- Value Until Time 1
  8,                                      !- Hour 2
  0,                                      !- Minute 2
  0.1,                                    !- Value Until Time 2
  14,                                     !- Hour 3
  0,                                      !- Minute 3
  0.5,                                    !- Value Until Time 3
  17,                                     !- Hour 4
  0,                                      !- Minute 4
  0.1,                                    !- Value Until Time 4
  24,                                     !- Hour 5
  0,                                      !- Minute 5
  0;                                      !- Value Until Time 5

OS:ScheduleTypeLimits,
  {6543842b-d521-4ad4-9b38-a79dd16fadb8}, !- Handle
  Fractional,                             !- Name
  0,                                      !- Lower Limit Value {BasedOnField A4}
  1,                                      !- Upper Limit Value {BasedOnField A4}
  Continuous;                             !- Numeric Type

OS:Schedule:Ruleset,
  {d0bf3f48-ccc8-4141-951d-17b1a7b5bef2}, !- Handle
  Medium Office People Activity Level Schedule, !- Name
  {dcf27004-b893-455a-8b11-0137805032ef}, !- Schedule Type Limits Name
  {04b5757d-d242-4245-bd79-33a54442233e}; !- Default Day Schedule Name

OS:Schedule:Day,
  {04b5757d-d242-4245-bd79-33a54442233e}, !- Handle
  Medium Office People Activity Level All Days Schedule, !- Name
  {dcf27004-b893-455a-8b11-0137805032ef}, !- Schedule Type Limits Name
  ,                                       !- Interpolate to Timestep
  24,                                     !- Hour 1
  0,                                      !- Minute 1
  120;                                    !- Value Until Time 1

OS:ScheduleTypeLimits,
  {dcf27004-b893-455a-8b11-0137805032ef}, !- Handle
  ActivityLevel,                          !- Name
  0,                                      !- Lower Limit Value {BasedOnField A4}
  ,                                       !- Upper Limit Value {BasedOnField A4}
  Continuous,                             !- Numeric Type
  ActivityLevel;                          !- Unit Type

OS:Schedule:Ruleset,
  {f8fd4299-f677-4eb0-beaf-cc815c2a97cc}, !- Handle
  Medium Office Lighting Schedule,        !- Name
  {6543842b-d521-4ad4-9b38-a79dd16fadb8}, !- Schedule Type Limits Name
  {3e0af1f4-abfa-4fee-a543-b63528de3125}, !- Default Day Schedule Name
  {57759871-473b-4a9f-976e-d5f939ebf67d}, !- Summer Design Day Schedule Name
  {5988c314-8248-46eb-84eb-09fd3ceed421}; !- Winter Design Day Schedule Name

OS:Schedule:Day,
  {3e0af1f4-abfa-4fee-a543-b63528de3125}, !- Handle
  Medium Office Lighting All Other Days Schedule, !- Name
  {6543842b-d521-4ad4-9b38-a79dd16fadb8}, !- Schedule Type Limits Name
  ,                                       !- Interpolate to Timestep
  24,                                     !- Hour 1
  0,                                      !- Minute 1
  0.05;                                   !- Value Until Time 1

OS:Schedule:Day,
  {f5300655-502b-4f53-84ec-8132df76d5ee}, !- Handle
  Medium Office Lighting Summer Design Day Schedule, !- Name
  ,                                       !- Schedule Type Limits Name
  ,                                       !- Interpolate to Timestep
  6,                                      !- Hour 1
  0,                                      !- Minute 1
  1,                                      !- Value Until Time 1
  24,                                     !- Hour 2
  0,                                      !- Minute 2
  0;                                      !- Value Until Time 2

OS:Schedule:Day,
  {57759871-473b-4a9f-976e-d5f939ebf67d}, !- Handle
  Medium Office Lighting Summer Design Day Schedule 1, !- Name
  {6543842b-d521-4ad4-9b38-a79dd16fadb8}, !- Schedule Type Limits Name
  ,                                       !- Interpolate to Timestep
  6,                                      !- Hour 1
  0,                                      !- Minute 1
  1,                                      !- Value Until Time 1
  24,                                     !- Hour 2
  0,                                      !- Minute 2
  0;                                      !- Value Until Time 2

OS:Schedule:Day,
  {f03226c0-14d6-4b77-8040-38badd20101f}, !- Handle
  Medium Office Lighting Winter Design Day Schedule, !- Name
  ,                                       !- Schedule Type Limits Name
  ,                                       !- Interpolate to Timestep
  24,                                     !- Hour 1
  0,                                      !- Minute 1
  0;                                      !- Value Until Time 1

OS:Schedule:Day,
  {5988c314-8248-46eb-84eb-09fd3ceed421}, !- Handle
  Medium Office Lighting Winter Design Day Schedule 1, !- Name
  {6543842b-d521-4ad4-9b38-a79dd16fadb8}, !- Schedule Type Limits Name
  ,                                       !- Interpolate to Timestep
  24,                                     !- Hour 1
  0,                                      !- Minute 1
  0;                                      !- Value Until Time 1

OS:Schedule:Rule,
  {8be92a3b-6d74-4722-91cc-1efa54351da1}, !- Handle
  Medium Office Lighting Schedule Weekdays Rule, !- Name
  {f8fd4299-f677-4eb0-beaf-cc815c2a97cc}, !- Schedule Ruleset Name
  1,                                      !- Rule Order
  {7760e2f6-cdfc-4fa9-9221-3ea4b44352c2}, !- Day Schedule Name
  ,                                       !- Apply Sunday
  Yes,                                    !- Apply Monday
  Yes,                                    !- Apply Tuesday
  Yes,                                    !- Apply Wednesday
  Yes,                                    !- Apply Thursday
  Yes;                                    !- Apply Friday

OS:Schedule:Day,
  {7760e2f6-cdfc-4fa9-9221-3ea4b44352c2}, !- Handle
  Medium Office Lighting Weekdays Schedule, !- Name
  {6543842b-d521-4ad4-9b38-a79dd16fadb8}, !- Schedule Type Limits Name
  ,                                       !- Interpolate to Timestep
  5,                                      !- Hour 1
  0,                                      !- Minute 1
  0.05,                                   !- Value Until Time 1
  7,                                      !- Hour 2
  0,                                      !- Minute 2
  0.1,                                    !- Value Until Time 2
  8,                                      !- Hour 3
  0,                                      !- Minute 3
  0.3,                                    !- Value Until Time 3
  17,                                     !- Hour 4
  0,                                      !- Minute 4
  0.9,                                    !- Value Until Time 4
  18,                                     !- Hour 5
  0,                                      !- Minute 5
  0.7,                                    !- Value Until Time 5
  20,                                     !- Hour 6
  0,                                      !- Minute 6
  0.5,                                    !- Value Until Time 6
  22,                                     !- Hour 7
  0,                                      !- Minute 7
  0.3,                                    !- Value Until Time 7
  23,                                     !- Hour 8
  0,                                      !- Minute 8
  0.1,                                    !- Value Until Time 8
  24,                                     !- Hour 9
  0,                                      !- Minute 9
  0.05;                                   !- Value Until Time 9

OS:Schedule:Rule,
  {6cd35adc-a010-4c91-9e38-8e129d132b51}, !- Handle
  Medium Office Lighting Schedule Saturday Rule, !- Name
  {f8fd4299-f677-4eb0-beaf-cc815c2a97cc}, !- Schedule Ruleset Name
  0,                                      !- Rule Order
  {017388b9-f798-43d8-a047-ee3a3c0793a1}, !- Day Schedule Name
  ,                                       !- Apply Sunday
  ,                                       !- Apply Monday
  ,                                       !- Apply Tuesday
  ,                                       !- Apply Wednesday
  ,                                       !- Apply Thursday
  ,                                       !- Apply Friday
  Yes;                                    !- Apply Saturday

OS:Schedule:Day,
  {017388b9-f798-43d8-a047-ee3a3c0793a1}, !- Handle
  Medium Office Lighting Saturday Schedule, !- Name
  {6543842b-d521-4ad4-9b38-a79dd16fadb8}, !- Schedule Type Limits Name
  ,                                       !- Interpolate to Timestep
  6,                                      !- Hour 1
  0,                                      !- Minute 1
  0.05,                                   !- Value Until Time 1
  8,                                      !- Hour 2
  0,                                      !- Minute 2
  0.1,                                    !- Value Until Time 2
  14,                                     !- Hour 3
  0,                                      !- Minute 3
  0.5,                                    !- Value Until Time 3
  17,                                     !- Hour 4
  0,                                      !- Minute 4
  0.15,                                   !- Value Until Time 4
  24,                                     !- Hour 5
  0,                                      !- Minute 5
  0.05;                                   !- Value Until Time 5

OS:Schedule:Ruleset,
  {d4f024d8-99c6-41d7-b9f1-b6e45bf4e7a1}, !- Handle
  Medium Office Electric Equipment Schedule, !- Name
  {6543842b-d521-4ad4-9b38-a79dd16fadb8}, !- Schedule Type Limits Name
  {557cefba-628c-40da-887d-88a29fe19519}, !- Default Day Schedule Name
  {7402221e-bdf5-4447-b170-d6f366de5891}, !- Summer Design Day Schedule Name
  {c124efa4-9c9e-40c3-a8a9-070013297bf5}; !- Winter Design Day Schedule Name

OS:Schedule:Day,
  {557cefba-628c-40da-887d-88a29fe19519}, !- Handle
  Medium Office Electric Equipment All Other Days Schedule, !- Name
  {6543842b-d521-4ad4-9b38-a79dd16fadb8}, !- Schedule Type Limits Name
  ,                                       !- Interpolate to Timestep
  24,                                     !- Hour 1
  0,                                      !- Minute 1
  0.3;                                    !- Value Until Time 1

OS:Schedule:Day,
  {00e63e38-e317-4768-acef-a482a89820f3}, !- Handle
  Medium Office Electric Equipment Summer Design Day Schedule, !- Name
  ,                                       !- Schedule Type Limits Name
  ,                                       !- Interpolate to Timestep
  6,                                      !- Hour 1
  0,                                      !- Minute 1
  1,                                      !- Value Until Time 1
  24,                                     !- Hour 2
  0,                                      !- Minute 2
  0;                                      !- Value Until Time 2

OS:Schedule:Day,
  {7402221e-bdf5-4447-b170-d6f366de5891}, !- Handle
  Medium Office Electric Equipment Summer Design Day Schedule 1, !- Name
  {6543842b-d521-4ad4-9b38-a79dd16fadb8}, !- Schedule Type Limits Name
  ,                                       !- Interpolate to Timestep
  6,                                      !- Hour 1
  0,                                      !- Minute 1
  1,                                      !- Value Until Time 1
  24,                                     !- Hour 2
  0,                                      !- Minute 2
  0;                                      !- Value Until Time 2

OS:Schedule:Day,
  {006a8743-934a-45b4-afe1-a365c4d0f1d7}, !- Handle
  Medium Office Electric Equipment Winter Design Day Schedule, !- Name
  ,                                       !- Schedule Type Limits Name
  ,                                       !- Interpolate to Timestep
  24,                                     !- Hour 1
  0,                                      !- Minute 1
  0;                                      !- Value Until Time 1

OS:Schedule:Day,
  {c124efa4-9c9e-40c3-a8a9-070013297bf5}, !- Handle
  Medium Office Electric Equipment Winter Design Day Schedule 1, !- Name
  {6543842b-d521-4ad4-9b38-a79dd16fadb8}, !- Schedule Type Limits Name
  ,                                       !- Interpolate to Timestep
  24,                                     !- Hour 1
  0,                                      !- Minute 1
  0;                                      !- Value Until Time 1

OS:Schedule:Rule,
  {2c04afff-7c04-49cf-b7e2-57929f03f590}, !- Handle
  Medium Office Electric Equipment Schedule Weekdays Rule, !- Name
  {d4f024d8-99c6-41d7-b9f1-b6e45bf4e7a1}, !- Schedule Ruleset Name
  1,                                      !- Rule Order
  {ffa02f70-62b1-483a-996c-9ff928d67718}, !- Day Schedule Name
  ,                                       !- Apply Sunday
  Yes,                                    !- Apply Monday
  Yes,                                    !- Apply Tuesday
  Yes,                                    !- Apply Wednesday
  Yes,                                    !- Apply Thursday
  Yes;                                    !- Apply Friday

OS:Schedule:Day,
  {ffa02f70-62b1-483a-996c-9ff928d67718}, !- Handle
  Medium Office Electric Equipment Weekdays Schedule, !- Name
  {6543842b-d521-4ad4-9b38-a79dd16fadb8}, !- Schedule Type Limits Name
  ,                                       !- Interpolate to Timestep
  8,                                      !- Hour 1
  0,                                      !- Minute 1
  0.4,                                    !- Value Until Time 1
  12,                                     !- Hour 2
  0,                                      !- Minute 2
  0.9,                                    !- Value Until Time 2
  13,                                     !- Hour 3
  0,                                      !- Minute 3
  0.8,                                    !- Value Until Time 3
  17,                                     !- Hour 4
  0,                                      !- Minute 4
  0.9,                                    !- Value Until Time 4
  18,                                     !- Hour 5
  0,                                      !- Minute 5
  0.8,                                    !- Value Until Time 5
  20,                                     !- Hour 6
  0,                                      !- Minute 6
  0.6,                                    !- Value Until Time 6
  22,                                     !- Hour 7
  0,                                      !- Minute 7
  0.5,                                    !- Value Until Time 7
  24,                                     !- Hour 8
  0,                                      !- Minute 8
  0.4;                                    !- Value Until Time 8

OS:Schedule:Rule,
  {2e64e900-684e-4e34-99b1-244fcd33f489}, !- Handle
  Medium Office Electric Equipment Schedule Saturday Rule, !- Name
  {d4f024d8-99c6-41d7-b9f1-b6e45bf4e7a1}, !- Schedule Ruleset Name
  0,                                      !- Rule Order
  {bc61d215-f7d9-4b5e-b9e3-489d9df39c2b}, !- Day Schedule Name
  ,                                       !- Apply Sunday
  ,                                       !- Apply Monday
  ,                                       !- Apply Tuesday
  ,                                       !- Apply Wednesday