
OS:Version,
  {19d4607c-567b-488d-9688-04a92ca372f6}, !- Handle
  1.6.1;                                  !- Version Identifier

OS:SimulationControl,
  {f917b458-8186-4840-9213-93b3cbb31f12}, !- Handle
  Yes,                                    !- Do Zone Sizing Calculation
  Yes,                                    !- Do System Sizing Calculation
  ,                                       !- Do Plant Sizing Calculation
  No,                                     !- Run Simulation for Sizing Periods
  Yes;                                    !- Run Simulation for Weather File Run Periods

OS:Timestep,
  {610335a7-01b9-4fca-8cf8-744aecdbf143}, !- Handle
  6;                                      !- Number of Timesteps per Hour

OS:RunPeriod,
  {c9eb97e4-67bd-4135-9616-e061090d112f}, !- Handle
  Run Period 1,                           !- Name
  1,                                      !- Begin Month
  1,                                      !- Begin Day of Month
  12,                                     !- End Month
  31,                                     !- End Day of Month
  No,                                     !- Use Weather File Holidays and Special Days
  No,                                     !- Use Weather File Daylight Saving Period
  No,                                     !- Apply Weekend Holiday Rule
  Yes,                                    !- Use Weather File Rain Indicators
  Yes,                                    !- Use Weather File Snow Indicators
  1;                                      !- Number of Times Runperiod to be Repeated

OS:SurfaceConvectionAlgorithm:Inside,
  {e1f76140-a3b2-42cf-b76d-9ac11cf20580}, !- Handle
  TARP;                                   !- Algorithm

OS:SurfaceConvectionAlgorithm:Outside,
  {9561bbeb-993f-44eb-a29d-7b03e70c310d}, !- Handle
  DOE-2;                                  !- Algorithm

OS:HeatBalanceAlgorithm,
  {ab118473-e9ba-4773-bbd5-b25b21da2753}, !- Handle
  ConductionTransferFunction,             !- Algorithm
  200;                                    !- Surface Temperature Upper Limit {F}

OS:ZoneAirHeatBalanceAlgorithm,
  {73d7068d-c994-4feb-8137-0702110d57ca}, !- Handle
  AnalyticalSolution;                     !- Algorithm

OS:ConvergenceLimits,
  {68bf5902-4feb-48e5-a85f-61f0b788e92b}; !- Handle

OS:ShadowCalculation,
  {580078d7-a4ec-48d8-ac9f-adb6c4778a3e}, !- Handle
  7,                                      !- Calculation Frequency
  15000;                                  !- Maximum Figures in Shadow Overlap Calculations

OS:Site,
  {0cd8e729-cee3-48c9-b2cd-b18a41849c16}, !- Handle
  Site 1,                                 !- Name
  41.77,                                  !- Latitude {deg}
  -87.75,                                 !- Longitude {deg}
  -6,                                     !- Time Zone {hr}
  190,                                    !- Elevation {m}
  ;                                       !- Terrain

OS:Site:GroundTemperature:BuildingSurface,
  {044967bf-78f8-4152-b9d7-53e29299b734}, !- Handle
  19.527,                                 !- January Ground Temperature {C}
  19.502,                                 !- February Ground Temperature {C}
  19.536,                                 !- March Ground Temperature {C}
  19.598,                                 !- April Ground Temperature {C}
  20.002,                                 !- May Ground Temperature {C}
  21.64,                                  !- June Ground Temperature {C}
  22.225,                                 !- July Ground Temperature {C}
  22.375,                                 !- August Ground Temperature {C}
  21.449,                                 !- September Ground Temperature {C}
  20.121,                                 !- October Ground Temperature {C}
  19.802,                                 !- November Ground Temperature {C}
  19.633;                                 !- December Ground Temperature {C}

OS:Site:WaterMainsTemperature,
  {4f4b6491-e6c8-4f34-971c-36668fce51b4}, !- Handle
  Correlation,                            !- Calculation Method
  ,                                       !- Temperature Schedule Name
  9.69,                                   !- Annual Average Outdoor Air Temperature {C}
  28.1;                                   !- Maximum Difference In Monthly Average Outdoor Air Temperatures {deltaC}

OS:SizingPeriod:DesignDay,
  {c7a02b18-362f-4f9e-b761-4055732deda0}, !- Handle
  Sizing Period Design Day 1,             !- Name
  -20.6,                                  !- Maximum Dry-Bulb Temperature {C}
  0,                                      !- Daily Dry-Bulb Temperature Range {deltaC}
  -20.6,                                  !- Humidity Indicating Conditions at Maximum Dry-Bulb {BasedOnField A3}
  99063,                                  !- Barometric Pressure {Pa}
  4.9,                                    !- Wind Speed {m/s}
  270,                                    !- Wind Direction {deg}
  0,                                      !- Sky Clearness
  0,                                      !- Rain Indicator
  0,                                      !- Snow Indicator
  21,                                     !- Day of Month
  1,                                      !- Month
  WinterDesignDay,                        !- Day Type
  0,                                      !- Daylight Saving Time Indicator
  WetBulb,                                !- Humidity Indicating Type
  ,                                       !- Humidity Indicating Day Schedule Name
  DefaultMultipliers,                     !- Dry-Bulb Temperature Range Modifier Type
  ,                                       !- Dry-Bulb Temperature Range Modifier Schedule Name
  AshraeClearSky;                         !- Solar Model Indicator

OS:SizingPeriod:DesignDay,
  {05ea0de6-ecbe-4e08-92e7-d92175543380}, !- Handle
  Sizing Period Design Day 2,             !- Name
  33.2,                                   !- Maximum Dry-Bulb Temperature {C}
  10.7,                                   !- Daily Dry-Bulb Temperature Range {deltaC}
  23.8,                                   !- Humidity Indicating Conditions at Maximum Dry-Bulb {BasedOnField A3}
  99063,                                  !- Barometric Pressure {Pa}
  5.3,                                    !- Wind Speed {m/s}
  230,                                    !- Wind Direction {deg}
  1,                                      !- Sky Clearness
  0,                                      !- Rain Indicator
  0,                                      !- Snow Indicator
  21,                                     !- Day of Month
  7,                                      !- Month
  SummerDesignDay,                        !- Day Type
  0,                                      !- Daylight Saving Time Indicator
  WetBulb,                                !- Humidity Indicating Type
  ,                                       !- Humidity Indicating Day Schedule Name
  DefaultMultipliers,                     !- Dry-Bulb Temperature Range Modifier Type
  ,                                       !- Dry-Bulb Temperature Range Modifier Schedule Name
  AshraeClearSky;                         !- Solar Model Indicator

OS:ScheduleTypeLimits,
  {cebc80ee-466d-4d89-8b47-d8d0bca05a49}, !- Handle
  Temperature,                            !- Name
  -60,                                    !- Lower Limit Value {BasedOnField A4}
  200,                                    !- Upper Limit Value {BasedOnField A4}
  CONTINUOUS,                             !- Numeric Type
  Temperature;                            !- Unit Type

OS:DefaultScheduleSet,
  {4f0ad662-e90f-4759-9b90-bfeb0312fb00}, !- Handle
  Default Schedules,                      !- Name
  ,                                       !- Hours of Operation Schedule Name
  {a08ae05d-29a4-4839-acce-252aa683d653}, !- Number of People Schedule Name
  {ae94c1c6-fa8a-49c9-a120-5827c4735eb8}, !- People Activity Level Schedule Name
  {d7470770-8167-4f79-8780-32bc172a28a6}, !- Lighting Schedule Name
  {15cc8992-c71c-42f4-8a04-d08b6920e740}, !- Electric Equipment Schedule Name
  {5f6e1e59-b787-4f87-8df0-f38f7ed6e407}, !- Gas Equipment Schedule Name
  {ca994ddd-c8be-457f-b345-bfafee0001a2}, !- Hot Water Equipment Schedule Name
  {cffac0c4-f39c-4249-8a5c-3da6505ae375}, !- Infiltration Schedule Name
  ,                                       !- Steam Equipment Schedule Name
  ;                                       !- Other Equipment Schedule Name

OS:Schedule:Ruleset,
  {a08ae05d-29a4-4839-acce-252aa683d653}, !- Handle
  Medium Office Number of People Schedule, !- Name
  {bbbdaa60-6008-4588-8e0a-9a371d4c1ab0}, !- Schedule Type Limits Name
  {2525f6ba-30e5-44b0-b9f1-b9a9af86c69b}, !- Default Day Schedule Name
  {9d146135-f1d7-4c9a-a3e5-9788d97d9a9c}; !- Summer Design Day Schedule Name

OS:Schedule:Day,
  {2525f6ba-30e5-44b0-b9f1-b9a9af86c69b}, !- Handle
  Medium Office Number of People All Other Days Schedule, !- Name
  {bbbdaa60-6008-4588-8e0a-9a371d4c1ab0}, !- Schedule Type Limits Name
  ,                                       !- Interpolate to Timestep
  24,                                     !- Hour 1
  0,                                      !- Minute 1
  0;                                      !- Value Until Time 1

OS:Schedule:Day,
  {eac00c7a-e9cf-439f-bc7b-7bddfd82e202}, !- Handle
  Medium Office Number of People Summer Design Day Schedule, !- Name
  ,                                       !- Schedule Type Limits Name
  ,                                       !- Interpolate to Timestep
  6,                                      !- Hour 1
  0,                                      !- Minute 1
  0,                                      !- Value Until Time 1
  22,                                     !- Hour 2
  0,                                      !- Minute 2
  1,                                      !- Value Until Time 2
  24,                                     !- Hour 3
  0,                                      !- Minute 3
  0.05;                                   !- Value Until Time 3

OS:Schedule:Day,
  {9d146135-f1d7-4c9a-a3e5-9788d97d9a9c}, !- Handle
  Medium Office Number of People Summer Design Day Schedule 1, !- Name
  {bbbdaa60-6008-4588-8e0a-9a371d4c1ab0}, !- Schedule Type Limits Name
  ,                                       !- Interpolate to Timestep
  6,                                      !- Hour 1
  0,                                      !- Minute 1
  0,                                      !- Value Until Time 1
  22,                                     !- Hour 2
  0,                                      !- Minute 2
  1,                                      !- Value Until Time 2
  24,                                     !- Hour 3
  0,                                      !- Minute 3
  0.05;                                   !- Value Until Time 3

OS:Schedule:Rule,
  {726c5b79-f3b8-4b47-9462-5e900c8434af}, !- Handle
  Medium Office Number of People Schedule Weekdays Rule, !- Name
  {a08ae05d-29a4-4839-acce-252aa683d653}, !- Schedule Ruleset Name
  1,                                      !- Rule Order
  {6b420369-8b72-4cee-aef4-41cef317c42d}, !- Day Schedule Name
  ,                                       !- Apply Sunday
  Yes,                                    !- Apply Monday
  Yes,                                    !- Apply Tuesday
  Yes,                                    !- Apply Wednesday
  Yes,                                    !- Apply Thursday
  Yes;                                    !- Apply Friday

OS:Schedule:Day,
  {6b420369-8b72-4cee-aef4-41cef317c42d}, !- Handle
  Medium Office Number of People Weekdays Schedule, !- Name
  {bbbdaa60-6008-4588-8e0a-9a371d4c1ab0}, !- Schedule Type Limits Name
  ,                                       !- Interpolate to Timestep
  6,                                      !- Hour 1
  0,                                      !- Minute 1
  0,                                      !- Value Until Time 1
  7,                                      !- Hour 2
  0,                                      !- Minute 2
  0.1,                                    !- Value Until Time 2
  8,                                      !- Hour 3
  0,                                      !- Minute 3
  0.2,                                    !- Value Until Time 3
  12,                                     !- Hour 4
  0,                                      !- Minute 4
  0.95,                                   !- Value Until Time 4
  13,                                     !- Hour 5
  0,                                      !- Minute 5
  0.5,                                    !- Value Until Time 5
  17,                                     !- Hour 6
  0,                                      !- Minute 6
  0.95,                                   !- Value Until Time 6
  18,                                     !- Hour 7
  0,                                      !- Minute 7
  0.7,                                    !- Value Until Time 7
  20,                                     !- Hour 8
  0,                                      !- Minute 8
  0.4,                                    !- Value Until Time 8
  22,                                     !- Hour 9
  0,                                      !- Minute 9
  0.1,                                    !- Value Until Time 9
  24,                                     !- Hour 10
  0,                                      !- Minute 10
  0.05;                                   !- Value Until Time 10

OS:Schedule:Rule,
  {862a176e-eaeb-4dc3-bd64-6f3e51dc2c41}, !- Handle
  Medium Office Number of People Schedule Saturday Rule, !- Name
  {a08ae05d-29a4-4839-acce-252aa683d653}, !- Schedule Ruleset Name
  0,                                      !- Rule Order
  {9dea5a76-594a-4227-ac41-7f9c2ca65ba0}, !- Day Schedule Name
  ,                                       !- Apply Sunday
  ,                                       !- Apply Monday
  ,                                       !- Apply Tuesday
  ,                                       !- Apply Wednesday
  ,                                       !- Apply Thursday
  ,                                       !- Apply Friday
  Yes;                                    !- Apply Saturday

OS:Schedule:Day,
  {9dea5a76-594a-4227-ac41-7f9c2ca65ba0}, !- Handle
  Medium Office Number of People Saturday Schedule, !- Name
  {bbbdaa60-6008-4588-8e0a-9a371d4c1ab0}, !- Schedule Type Limits Name
  ,                                       !- Interpolate to Timestep
  6,                                      !- Hour 1
  0,                                      !- Minute 1
  0,                                      !- Value Until Time 1
  8,                                      !- Hour 2
  0,                                      !- Minute 2
  0.1,                                    !- Value Until Time 2
  14,                                     !- Hour 3
  0,                                      !- Minute 3
  0.5,                                    !- Value Until Time 3
  17,                                     !- Hour 4
  0,                                      !- Minute 4
  0.1,                                    !- Value Until Time 4
  24,                                     !- Hour 5
  0,                                      !- Minute 5
  0;                                      !- Value Until Time 5

OS:ScheduleTypeLimits,
  {bbbdaa60-6008-4588-8e0a-9a371d4c1ab0}, !- Handle
  Fractional,                             !- Name
  0,                                      !- Lower Limit Value {BasedOnField A4}
  1,                                      !- Upper Limit Value {BasedOnField A4}
  Continuous;                             !- Numeric Type

OS:Schedule:Ruleset,
  {ae94c1c6-fa8a-49c9-a120-5827c4735eb8}, !- Handle
  Medium Office People Activity Level Schedule, !- Name
  {54293474-8cde-480c-b1a1-014f7a87d600}, !- Schedule Type Limits Name
  {be4e23ec-937a-485f-b11b-eee0ac5de375}; !- Default Day Schedule Name

OS:Schedule:Day,
  {be4e23ec-937a-485f-b11b-eee0ac5de375}, !- Handle
  Medium Office People Activity Level All Days Schedule, !- Name
  {54293474-8cde-480c-b1a1-014f7a87d600}, !- Schedule Type Limits Name
  ,                                       !- Interpolate to Timestep
  24,                                     !- Hour 1
  0,                                      !- Minute 1
  120;                                    !- Value Until Time 1

OS:ScheduleTypeLimits,
  {54293474-8cde-480c-b1a1-014f7a87d600}, !- Handle
  ActivityLevel,                          !- Name
  0,                                      !- Lower Limit Value {BasedOnField A4}
  ,                                       !- Upper Limit Value {BasedOnField A4}
  Continuous,                             !- Numeric Type
  ActivityLevel;                          !- Unit Type

OS:Schedule:Ruleset,
  {d7470770-8167-4f79-8780-32bc172a28a6}, !- Handle
  Medium Office Lighting Schedule,        !- Name
  {bbbdaa60-6008-4588-8e0a-9a371d4c1ab0}, !- Schedule Type Limits Name
  {adf38b6e-aa41-46d9-8f10-931e471dd30b}, !- Default Day Schedule Name
  {aa259437-6ff9-42df-8f2c-22d75d366b85}, !- Summer Design Day Schedule Name
  {a79512a9-f8a5-4886-9306-3eca8ba8f3f1}; !- Winter Design Day Schedule Name

OS:Schedule:Day,
  {adf38b6e-aa41-46d9-8f10-931e471dd30b}, !- Handle
  Medium Office Lighting All Other Days Schedule, !- Name
  {bbbdaa60-6008-4588-8e0a-9a371d4c1ab0}, !- Schedule Type Limits Name
  ,                                       !- Interpolate to Timestep
  24,                                     !- Hour 1
  0,                                      !- Minute 1
  0.05;                                   !- Value Until Time 1

OS:Schedule:Day,
  {598ba6f7-e4f3-4061-9066-4da21ddc876d}, !- Handle
  Medium Office Lighting Summer Design Day Schedule, !- Name
  ,                                       !- Schedule Type Limits Name
  ,                                       !- Interpolate to Timestep
  6,                                      !- Hour 1
  0,                                      !- Minute 1
  1,                                      !- Value Until Time 1
  24,                                     !- Hour 2
  0,                                      !- Minute 2
  0;                                      !- Value Until Time 2

OS:Schedule:Day,
  {aa259437-6ff9-42df-8f2c-22d75d366b85}, !- Handle
  Medium Office Lighting Summer Design Day Schedule 1, !- Name
  {bbbdaa60-6008-4588-8e0a-9a371d4c1ab0}, !- Schedule Type Limits Name
  ,                                       !- Interpolate to Timestep
  6,                                      !- Hour 1
  0,                                      !- Minute 1
  1,                                      !- Value Until Time 1
  24,                                     !- Hour 2
  0,                                      !- Minute 2
  0;                                      !- Value Until Time 2

OS:Schedule:Day,
  {4b26f4a2-d990-4ec9-a668-824123dc13f1}, !- Handle
  Medium Office Lighting Winter Design Day Schedule, !- Name
  ,                                       !- Schedule Type Limits Name
  ,                                       !- Interpolate to Timestep
  24,                                     !- Hour 1
  0,                                      !- Minute 1
  0;                                      !- Value Until Time 1

OS:Schedule:Day,
  {a79512a9-f8a5-4886-9306-3eca8ba8f3f1}, !- Handle
  Medium Office Lighting Winter Design Day Schedule 1, !- Name
  {bbbdaa60-6008-4588-8e0a-9a371d4c1ab0}, !- Schedule Type Limits Name
  ,                                       !- Interpolate to Timestep
  24,                                     !- Hour 1
  0,                                      !- Minute 1
  0;                                      !- Value Until Time 1

OS:Schedule:Rule,
  {837dc050-a8dc-42a0-ad2b-ab7f3ded43f3}, !- Handle
  Medium Office Lighting Schedule Weekdays Rule, !- Name
  {d7470770-8167-4f79-8780-32bc172a28a6}, !- Schedule Ruleset Name
  1,                                      !- Rule Order
  {94fb948f-e7a1-4ff4-a221-487b39739fef}, !- Day Schedule Name
  ,                                       !- Apply Sunday
  Yes,                                    !- Apply Monday
  Yes,                                    !- Apply Tuesday
  Yes,                                    !- Apply Wednesday
  Yes,                                    !- Apply Thursday
  Yes;                                    !- Apply Friday

OS:Schedule:Day,
  {94fb948f-e7a1-4ff4-a221-487b39739fef}, !- Handle
  Medium Office Lighting Weekdays Schedule, !- Name
  {bbbdaa60-6008-4588-8e0a-9a371d4c1ab0}, !- Schedule Type Limits Name
  ,                                       !- Interpolate to Timestep
  5,                                      !- Hour 1
  0,                                      !- Minute 1
  0.05,                                   !- Value Until Time 1
  7,                                      !- Hour 2
  0,                                      !- Minute 2
  0.1,                                    !- Value Until Time 2
  8,                                      !- Hour 3
  0,                                      !- Minute 3
  0.3,                                    !- Value Until Time 3
  17,                                     !- Hour 4
  0,                                      !- Minute 4
  0.9,                                    !- Value Until Time 4
  18,                                     !- Hour 5
  0,                                      !- Minute 5
  0.7,                                    !- Value Until Time 5
  20,                                     !- Hour 6
  0,                                      !- Minute 6
  0.5,                                    !- Value Until Time 6
  22,                                     !- Hour 7
  0,                                      !- Minute 7
  0.3,                                    !- Value Until Time 7
  23,                                     !- Hour 8
  0,                                      !- Minute 8
  0.1,                                    !- Value Until Time 8
  24,                                     !- Hour 9
  0,                                      !- Minute 9
  0.05;                                   !- Value Until Time 9

OS:Schedule:Rule,
  {73d3fe86-76df-4f1f-9082-692b9d8dc826}, !- Handle
  Medium Office Lighting Schedule Saturday Rule, !- Name
  {d7470770-8167-4f79-8780-32bc172a28a6}, !- Schedule Ruleset Name
  0,                                      !- Rule Order
  {9002a94c-a9b8-4930-9a78-389da35cf771}, !- Day Schedule Name
  ,                                       !- Apply Sunday
  ,                                       !- Apply Monday
  ,                                       !- Apply Tuesday
  ,                                       !- Apply Wednesday
  ,                                       !- Apply Thursday
  ,                                       !- Apply Friday
  Yes;                                    !- Apply Saturday

OS:Schedule:Day,
  {9002a94c-a9b8-4930-9a78-389da35cf771}, !- Handle
  Medium Office Lighting Saturday Schedule, !- Name
  {bbbdaa60-6008-4588-8e0a-9a371d4c1ab0}, !- Schedule Type Limits Name
  ,                                       !- Interpolate to Timestep
  6,                                      !- Hour 1
  0,                                      !- Minute 1
  0.05,                                   !- Value Until Time 1
  8,                                      !- Hour 2
  0,                                      !- Minute 2
  0.1,                                    !- Value Until Time 2
  14,                                     !- Hour 3
  0,                                      !- Minute 3
  0.5,                                    !- Value Until Time 3
  17,                                     !- Hour 4
  0,                                      !- Minute 4
  0.15,                                   !- Value Until Time 4
  24,                                     !- Hour 5
  0,                                      !- Minute 5
  0.05;                                   !- Value Until Time 5

OS:Schedule:Ruleset,
  {15cc8992-c71c-42f4-8a04-d08b6920e740}, !- Handle
  Medium Office Electric Equipment Schedule, !- Name
  {bbbdaa60-6008-4588-8e0a-9a371d4c1ab0}, !- Schedule Type Limits Name
  {fb8a7814-89a6-49c0-9357-f7d6909d50a3}, !- Default Day Schedule Name
  {c87c94e8-95f8-4aa3-bcf4-63cbfcd71609}, !- Summer Design Day Schedule Name
  {ff7f7c29-8cc3-41f8-aa7a-920458146e9a}; !- Winter Design Day Schedule Name

OS:Schedule:Day,
  {fb8a7814-89a6-49c0-9357-f7d6909d50a3}, !- Handle
  Medium Office Electric Equipment All Other Days Schedule, !- Name
  {bbbdaa60-6008-4588-8e0a-9a371d4c1ab0}, !- Schedule Type Limits Name
  ,                                       !- Interpolate to Timestep
  24,                                     !- Hour 1
  0,                                      !- Minute 1
  0.3;                                    !- Value Until Time 1

OS:Schedule:Day,
  {11c2c444-6d1e-45c8-9d13-c73e108cf978}, !- Handle
  Medium Office Electric Equipment Summer Design Day Schedule, !- Name
  ,                                       !- Schedule Type Limits Name
  ,                                       !- Interpolate to Timestep
  6,                                      !- Hour 1
  0,                                      !- Minute 1
  1,                                      !- Value Until Time 1
  24,                                     !- Hour 2
  0,                                      !- Minute 2
  0;                                      !- Value Until Time 2

OS:Schedule:Day,
  {c87c94e8-95f8-4aa3-bcf4-63cbfcd71609}, !- Handle
  Medium Office Electric Equipment Summer Design Day Schedule 1, !- Name
  {bbbdaa60-6008-4588-8e0a-9a371d4c1ab0}, !- Schedule Type Limits Name
  ,                                       !- Interpolate to Timestep
  6,                                      !- Hour 1
  0,                                      !- Minute 1
  1,                                      !- Value Until Time 1
  24,                                     !- Hour 2
  0,                                      !- Minute 2
  0;                                      !- Value Until Time 2

OS:Schedule:Day,
  {4376026d-7ee8-4af9-933d-bf98ccdb06f6}, !- Handle
  Medium Office Electric Equipment Winter Design Day Schedule, !- Name
  ,                                       !- Schedule Type Limits Name
  ,                                       !- Interpolate to Timestep
  24,                                     !- Hour 1
  0,                                      !- Minute 1
  0;                                      !- Value Until Time 1

OS:Schedule:Day,
  {ff7f7c29-8cc3-41f8-aa7a-920458146e9a}, !- Handle
  Medium Office Electric Equipment Winter Design Day Schedule 1, !- Name
  {bbbdaa60-6008-4588-8e0a-9a371d4c1ab0}, !- Schedule Type Limits Name
  ,                                       !- Interpolate to Timestep
  24,                                     !- Hour 1
  0,                                      !- Minute 1
  0;                                      !- Value Until Time 1

OS:Schedule:Rule,
  {6b642d5b-fea0-4a81-871c-0633ea0129d7}, !- Handle
  Medium Office Electric Equipment Schedule Weekdays Rule, !- Name
  {15cc8992-c71c-42f4-8a04-d08b6920e740}, !- Schedule Ruleset Name
  1,                                      !- Rule Order
  {7567ef94-a04c-4894-ba63-a109098c2f54}, !- Day Schedule Name
  ,                                       !- Apply Sunday
  Yes,                                    !- Apply Monday
  Yes,                                    !- Apply Tuesday
  Yes,                                    !- Apply Wednesday
  Yes,                                    !- Apply Thursday
  Yes;                                    !- Apply Friday

OS:Schedule:Day,
  {7567ef94-a04c-4894-ba63-a109098c2f54}, !- Handle
  Medium Office Electric Equipment Weekdays Schedule, !- Name
  {bbbdaa60-6008-4588-8e0a-9a371d4c1ab0}, !- Schedule Type Limits Name
  ,                                       !- Interpolate to Timestep
  8,                                      !- Hour 1
  0,                                      !- Minute 1
  0.4,                                    !- Value Until Time 1
  12,                                     !- Hour 2
  0,                                      !- Minute 2
  0.9,                                    !- Value Until Time 2
  13,                                     !- Hour 3
  0,                                      !- Minute 3
  0.8,                                    !- Value Until Time 3
  17,                                     !- Hour 4
  0,                                      !- Minute 4
  0.9,                                    !- Value Until Time 4
  18,                                     !- Hour 5
  0,                                      !- Minute 5
  0.8,                                    !- Value Until Time 5
  20,                                     !- Hour 6
  0,                                      !- Minute 6
  0.6,                                    !- Value Until Time 6
  22,                                     !- Hour 7
  0,                                      !- Minute 7
  0.5,                                    !- Value Until Time 7
  24,                                     !- Hour 8
  0,                                      !- Minute 8
  0.4;                                    !- Value Until Time 8

OS:Schedule:Rule,
  {bcdea320-2663-4eaa-9cb9-860fcdac4cc3}, !- Handle
  Medium Office Electric Equipment Schedule Saturday Rule, !- Name
  {15cc8992-c71c-42f4-8a04-d08b6920e740}, !- Schedule Ruleset Name
  0,                                      !- Rule Order
  {2539b0de-9b23-4bd2-908c-8fe0a77ce884}, !- Day Schedule Name
  ,                                       !- Apply Sunday
  ,                                       !- Apply Monday
  ,                                       !- Apply Tuesday
  ,                                       !- Apply Wednesday