
OS:Version,
  {7e80441f-374e-4587-94af-75bf2917b762}, !- Handle
  1.0.0;                                  !- Version Identifier

OS:SimulationControl,
  {e3a0c281-2518-4f58-b68a-98e15b2b7d36}, !- Handle
  Yes,                                    !- Do Zone Sizing Calculation
  Yes,                                    !- Do System Sizing Calculation
  ,                                       !- Do Plant Sizing Calculation
  No,                                     !- Run Simulation for Sizing Periods
  Yes;                                    !- Run Simulation for Weather File Run Periods

OS:Timestep,
  {b80a34eb-1863-40cf-80c0-9b35a525547b}, !- Handle
  6;                                      !- Number of Timesteps per Hour

OS:RunPeriod,
  {16f48544-0b30-4f87-b102-357610c89c5a}, !- Handle
  Run Period 1,                           !- Name
  1,                                      !- Begin Month
  1,                                      !- Begin Day of Month
  12,                                     !- End Month
  31,                                     !- End Day of Month
  No,                                     !- Use Weather File Holidays and Special Days
  No,                                     !- Use Weather File Daylight Saving Period
  No,                                     !- Apply Weekend Holiday Rule
  Yes,                                    !- Use Weather File Rain Indicators
  Yes,                                    !- Use Weather File Snow Indicators
  1;                                      !- Number of Times Runperiod to be Repeated

OS:SurfaceConvectionAlgorithm:Inside,
  {86f11e70-64bd-402f-a2f9-2de5c77d7d9d}, !- Handle
  TARP;                                   !- Algorithm

OS:SurfaceConvectionAlgorithm:Outside,
  {492dc4c6-cadc-433b-a271-b972f73f060b}, !- Handle
  DOE-2;                                  !- Algorithm

OS:HeatBalanceAlgorithm,
  {25f40040-7a42-4a9c-b96a-5ad8290f78ed}, !- Handle
  ConductionTransferFunction,             !- Algorithm
  200;                                    !- Surface Temperature Upper Limit {F}

OS:ZoneAirHeatBalanceAlgorithm,
  {b0b0bd54-2a80-43b7-b7c9-578bc02bb23a}, !- Handle
  AnalyticalSolution;                     !- Algorithm

OS:ConvergenceLimits,
  {a2349299-7aaf-4172-8e49-2d6a9cd1e887}; !- Handle

OS:ShadowCalculation,
  {39da3437-9b95-49cd-bfe8-ca0c0cfe75e0}, !- Handle
  7,                                      !- Calculation Frequency
  15000;                                  !- Maximum Figures in Shadow Overlap Calculations

OS:Site,
  {9c5342c8-0042-4898-8102-3adc8d919bc7}, !- Handle
  Site 1,                                 !- Name
  41.77,                                  !- Latitude {deg}
  -87.75,                                 !- Longitude {deg}
  -6,                                     !- Time Zone {hr}
  190,                                    !- Elevation {m}
  ;                                       !- Terrain

OS:Site:GroundTemperature:BuildingSurface,
  {65acf238-3bcf-469a-b27b-16ddc4e69c88}, !- Handle
  19.527,                                 !- January Ground Temperature {C}
  19.502,                                 !- February Ground Temperature {C}
  19.536,                                 !- March Ground Temperature {C}
  19.598,                                 !- April Ground Temperature {C}
  20.002,                                 !- May Ground Temperature {C}
  21.64,                                  !- June Ground Temperature {C}
  22.225,                                 !- July Ground Temperature {C}
  22.375,                                 !- August Ground Temperature {C}
  21.449,                                 !- September Ground Temperature {C}
  20.121,                                 !- October Ground Temperature {C}
  19.802,                                 !- November Ground Temperature {C}
  19.633;                                 !- December Ground Temperature {C}

OS:Site:WaterMainsTemperature,
  {abc1a8b8-0cb2-4780-880a-446963e80ca7}, !- Handle
  Correlation,                            !- Calculation Method
  ,                                       !- Temperature Schedule Name
  9.69,                                   !- Annual Average Outdoor Air Temperature {C}
  28.1;                                   !- Maximum Difference In Monthly Average Outdoor Air Temperatures {deltaC}

OS:SizingPeriod:DesignDay,
  {7794e4a3-eb1a-4903-bef5-723197739eb5}, !- Handle
  Sizing Period Design Day 1,             !- Name
  -20.6,                                  !- Maximum Dry-Bulb Temperature {C}
  0,                                      !- Daily Dry-Bulb Temperature Range {deltaC}
  -20.6,                                  !- Humidity Indicating Conditions at Maximum Dry-Bulb {BasedOnField A3}
  99063,                                  !- Barometric Pressure {Pa}
  4.9,                                    !- Wind Speed {m/s}
  270,                                    !- Wind Direction {deg}
  0,                                      !- Sky Clearness
  0,                                      !- Rain Indicator
  0,                                      !- Snow Indicator
  21,                                     !- Day of Month
  1,                                      !- Month
  WinterDesignDay,                        !- Day Type
  0,                                      !- Daylight Saving Time Indicator
  WetBulb,                                !- Humidity Indicating Type
  ,                                       !- Humidity Indicating Day Schedule Name
  DefaultMultipliers,                     !- Dry-Bulb Temperature Range Modifier Type
  ,                                       !- Dry-Bulb Temperature Range Modifier Schedule Name
  AshraeClearSky;                         !- Solar Model Indicator

OS:SizingPeriod:DesignDay,
  {865483ba-fefc-40e6-a461-1d0c9604a52f}, !- Handle
  Sizing Period Design Day 2,             !- Name
  33.2,                                   !- Maximum Dry-Bulb Temperature {C}
  10.7,                                   !- Daily Dry-Bulb Temperature Range {deltaC}
  23.8,                                   !- Humidity Indicating Conditions at Maximum Dry-Bulb {BasedOnField A3}
  99063,                                  !- Barometric Pressure {Pa}
  5.3,                                    !- Wind Speed {m/s}
  230,                                    !- Wind Direction {deg}
  1,                                      !- Sky Clearness
  0,                                      !- Rain Indicator
  0,                                      !- Snow Indicator
  21,                                     !- Day of Month
  7,                                      !- Month
  SummerDesignDay,                        !- Day Type
  0,                                      !- Daylight Saving Time Indicator
  WetBulb,                                !- Humidity Indicating Type
  ,                                       !- Humidity Indicating Day Schedule Name
  DefaultMultipliers,                     !- Dry-Bulb Temperature Range Modifier Type
  ,                                       !- Dry-Bulb Temperature Range Modifier Schedule Name
  AshraeClearSky;                         !- Solar Model Indicator

OS:ScheduleTypeLimits,
  {07a1aa73-340f-43d6-a0e7-dbc519ce58bf}, !- Handle
  Temperature,                            !- Name
  -60,                                    !- Lower Limit Value {BasedOnField A4}
  200,                                    !- Upper Limit Value {BasedOnField A4}
  CONTINUOUS,                             !- Numeric Type
  Temperature;                            !- Unit Type

OS:DefaultScheduleSet,
  {59e7408c-c35c-4139-97fa-5390a40cc08a}, !- Handle
  Default Schedules,                      !- Name
  ,                                       !- Hours of Operation Schedule Name
  {14f9674f-3bf7-4b02-9a9e-cbcb1e17c139}, !- Number of People Schedule Name
  {38e6f2ec-a915-4657-ac2b-372c22f8b87c}, !- People Activity Level Schedule Name
  {4e0f11ce-037b-4cae-adb1-10a28bc95189}, !- Lighting Schedule Name
  {79de8aa5-97ac-4792-8071-13ed1a974a36}, !- Electric Equipment Schedule Name
  {6f5aa1af-e8c8-4b00-a8fe-e0d4d4370145}, !- Gas Equipment Schedule Name
  {04cea204-ecd0-4e56-abc7-12167f5dd4e7}, !- Hot Water Equipment Schedule Name
  {99f5b888-11be-4bb7-9bba-fea649e2ce0b}, !- Infiltration Schedule Name
  ,                                       !- Steam Equipment Schedule Name
  ;                                       !- Other Equipment Schedule Name

OS:Schedule:Ruleset,
  {14f9674f-3bf7-4b02-9a9e-cbcb1e17c139}, !- Handle
  Medium Office Number of People Schedule, !- Name
  {32cea522-b098-4639-baef-45cdbc3a0df9}, !- Schedule Type Limits Name
  {33f7e1ec-9cd2-4c60-9c57-16ccc93f658b}, !- Default Day Schedule Name
  {dd8174c8-93f4-4e70-90b8-f7404d425c6e}; !- Summer Design Day Schedule Name

OS:Schedule:Day,
  {33f7e1ec-9cd2-4c60-9c57-16ccc93f658b}, !- Handle
  Medium Office Number of People All Other Days Schedule, !- Name
  {32cea522-b098-4639-baef-45cdbc3a0df9}, !- Schedule Type Limits Name
  ,                                       !- Interpolate to Timestep
  24,                                     !- Hour 1
  0,                                      !- Minute 1
  0;                                      !- Value Until Time 1

OS:Schedule:Day,
  {8abf4a88-33cf-4c56-8cf6-2a964cc0b2b0}, !- Handle
  Medium Office Number of People Summer Design Day Schedule, !- Name
  ,                                       !- Schedule Type Limits Name
  ,                                       !- Interpolate to Timestep
  6,                                      !- Hour 1
  0,                                      !- Minute 1
  0,                                      !- Value Until Time 1
  22,                                     !- Hour 2
  0,                                      !- Minute 2
  1,                                      !- Value Until Time 2
  24,                                     !- Hour 3
  0,                                      !- Minute 3
  0.05;                                   !- Value Until Time 3

OS:Schedule:Day,
  {dd8174c8-93f4-4e70-90b8-f7404d425c6e}, !- Handle
  Medium Office Number of People Summer Design Day Schedule 1, !- Name
  {32cea522-b098-4639-baef-45cdbc3a0df9}, !- Schedule Type Limits Name
  ,                                       !- Interpolate to Timestep
  6,                                      !- Hour 1
  0,                                      !- Minute 1
  0,                                      !- Value Until Time 1
  22,                                     !- Hour 2
  0,                                      !- Minute 2
  1,                                      !- Value Until Time 2
  24,                                     !- Hour 3
  0,                                      !- Minute 3
  0.05;                                   !- Value Until Time 3

OS:Schedule:Rule,
  {1fc8ed9a-29f7-42ea-bb9f-642a67c34892}, !- Handle
  Medium Office Number of People Schedule Weekdays Rule, !- Name
  {14f9674f-3bf7-4b02-9a9e-cbcb1e17c139}, !- Schedule Ruleset Name
  1,                                      !- Rule Order
  {50141551-3276-488f-91d7-c265e58eb1ee}, !- Day Schedule Name
  ,                                       !- Apply Sunday
  Yes,                                    !- Apply Monday
  Yes,                                    !- Apply Tuesday
  Yes,                                    !- Apply Wednesday
  Yes,                                    !- Apply Thursday
  Yes;                                    !- Apply Friday

OS:Schedule:Day,
  {50141551-3276-488f-91d7-c265e58eb1ee}, !- Handle
  Medium Office Number of People Weekdays Schedule, !- Name
  {32cea522-b098-4639-baef-45cdbc3a0df9}, !- Schedule Type Limits Name
  ,                                       !- Interpolate to Timestep
  6,                                      !- Hour 1
  0,                                      !- Minute 1
  0,                                      !- Value Until Time 1
  7,                                      !- Hour 2
  0,                                      !- Minute 2
  0.1,                                    !- Value Until Time 2
  8,                                      !- Hour 3
  0,                                      !- Minute 3
  0.2,                                    !- Value Until Time 3
  12,                                     !- Hour 4
  0,                                      !- Minute 4
  0.95,                                   !- Value Until Time 4
  13,                                     !- Hour 5
  0,                                      !- Minute 5
  0.5,                                    !- Value Until Time 5
  17,                                     !- Hour 6
  0,                                      !- Minute 6
  0.95,                                   !- Value Until Time 6
  18,                                     !- Hour 7
  0,                                      !- Minute 7
  0.7,                                    !- Value Until Time 7
  20,                                     !- Hour 8
  0,                                      !- Minute 8
  0.4,                                    !- Value Until Time 8
  22,                                     !- Hour 9
  0,                                      !- Minute 9
  0.1,                                    !- Value Until Time 9
  24,                                     !- Hour 10
  0,                                      !- Minute 10
  0.05;                                   !- Value Until Time 10

OS:Schedule:Rule,
  {d7c2e1e7-1d08-490e-b358-7aa263717f0f}, !- Handle
  Medium Office Number of People Schedule Saturday Rule, !- Name
  {14f9674f-3bf7-4b02-9a9e-cbcb1e17c139}, !- Schedule Ruleset Name
  0,                                      !- Rule Order
  {7c76960b-3b44-4bf7-a4ef-d4250fec6750}, !- Day Schedule Name
  ,                                       !- Apply Sunday
  ,                                       !- Apply Monday
  ,                                       !- Apply Tuesday
  ,                                       !- Apply Wednesday
  ,                                       !- Apply Thursday
  ,                                       !- Apply Friday
  Yes;                                    !- Apply Saturday

OS:Schedule:Day,
  {7c76960b-3b44-4bf7-a4ef-d4250fec6750}, !- Handle
  Medium Office Number of People Saturday Schedule, !- Name
  {32cea522-b098-4639-baef-45cdbc3a0df9}, !- Schedule Type Limits Name
  ,                                       !- Interpolate to Timestep
  6,                                      !- Hour 1
  0,                                      !- Minute 1
  0,                                      !- Value Until Time 1
  8,                                      !- Hour 2
  0,                                      !- Minute 2
  0.1,                                    !- Value Until Time 2
  14,                                     !- Hour 3
  0,                                      !- Minute 3
  0.5,                                    !- Value Until Time 3
  17,                                     !- Hour 4
  0,                                      !- Minute 4
  0.1,                                    !- Value Until Time 4
  24,                                     !- Hour 5
  0,                                      !- Minute 5
  0;                                      !- Value Until Time 5

OS:ScheduleTypeLimits,
  {32cea522-b098-4639-baef-45cdbc3a0df9}, !- Handle
  Fractional,                             !- Name
  0,                                      !- Lower Limit Value {BasedOnField A4}
  1,                                      !- Upper Limit Value {BasedOnField A4}
  Continuous;                             !- Numeric Type

OS:Schedule:Ruleset,
  {38e6f2ec-a915-4657-ac2b-372c22f8b87c}, !- Handle
  Medium Office People Activity Level Schedule, !- Name
  {c9db4530-0e19-4432-997f-797d013db02b}, !- Schedule Type Limits Name
  {691c5c19-e541-45e2-9de3-2c5af20e77f5}; !- Default Day Schedule Name

OS:Schedule:Day,
  {691c5c19-e541-45e2-9de3-2c5af20e77f5}, !- Handle
  Medium Office People Activity Level All Days Schedule, !- Name
  {c9db4530-0e19-4432-997f-797d013db02b}, !- Schedule Type Limits Name
  ,                                       !- Interpolate to Timestep
  24,                                     !- Hour 1
  0,                                      !- Minute 1
  120;                                    !- Value Until Time 1

OS:ScheduleTypeLimits,
  {c9db4530-0e19-4432-997f-797d013db02b}, !- Handle
  ActivityLevel,                          !- Name
  0,                                      !- Lower Limit Value {BasedOnField A4}
  ,                                       !- Upper Limit Value {BasedOnField A4}
  Continuous,                             !- Numeric Type
  ActivityLevel;                          !- Unit Type

OS:Schedule:Ruleset,
  {4e0f11ce-037b-4cae-adb1-10a28bc95189}, !- Handle
  Medium Office Lighting Schedule,        !- Name
  {32cea522-b098-4639-baef-45cdbc3a0df9}, !- Schedule Type Limits Name
  {2f2c2031-01d2-4155-9db0-1bf40e2022f1}, !- Default Day Schedule Name
  {0d90a935-8b4f-4d80-af9f-eb670da0f4d4}, !- Summer Design Day Schedule Name
  {c94b6320-0150-4a49-83a2-76f7f0bd4a46}; !- Winter Design Day Schedule Name

OS:Schedule:Day,
  {2f2c2031-01d2-4155-9db0-1bf40e2022f1}, !- Handle
  Medium Office Lighting All Other Days Schedule, !- Name
  {32cea522-b098-4639-baef-45cdbc3a0df9}, !- Schedule Type Limits Name
  ,                                       !- Interpolate to Timestep
  24,                                     !- Hour 1
  0,                                      !- Minute 1
  0.05;                                   !- Value Until Time 1

OS:Schedule:Day,
  {e4f267b1-19b5-4cdf-990e-3614d3bf02f6}, !- Handle
  Medium Office Lighting Summer Design Day Schedule, !- Name
  ,                                       !- Schedule Type Limits Name
  ,                                       !- Interpolate to Timestep
  6,                                      !- Hour 1
  0,                                      !- Minute 1
  1,                                      !- Value Until Time 1
  24,                                     !- Hour 2
  0,                                      !- Minute 2
  0;                                      !- Value Until Time 2

OS:Schedule:Day,
  {0d90a935-8b4f-4d80-af9f-eb670da0f4d4}, !- Handle
  Medium Office Lighting Summer Design Day Schedule 1, !- Name
  {32cea522-b098-4639-baef-45cdbc3a0df9}, !- Schedule Type Limits Name
  ,                                       !- Interpolate to Timestep
  6,                                      !- Hour 1
  0,                                      !- Minute 1
  1,                                      !- Value Until Time 1
  24,                                     !- Hour 2
  0,                                      !- Minute 2
  0;                                      !- Value Until Time 2

OS:Schedule:Day,
  {855ff71e-9326-434e-bac0-6b4026f6a09b}, !- Handle
  Medium Office Lighting Winter Design Day Schedule, !- Name
  ,                                       !- Schedule Type Limits Name
  ,                                       !- Interpolate to Timestep
  24,                                     !- Hour 1
  0,                                      !- Minute 1
  0;                                      !- Value Until Time 1

OS:Schedule:Day,
  {c94b6320-0150-4a49-83a2-76f7f0bd4a46}, !- Handle
  Medium Office Lighting Winter Design Day Schedule 1, !- Name
  {32cea522-b098-4639-baef-45cdbc3a0df9}, !- Schedule Type Limits Name
  ,                                       !- Interpolate to Timestep
  24,                                     !- Hour 1
  0,                                      !- Minute 1
  0;                                      !- Value Until Time 1

OS:Schedule:Rule,
  {22e1223c-7379-4ee6-a0a2-1290c42a77bc}, !- Handle
  Medium Office Lighting Schedule Weekdays Rule, !- Name
  {4e0f11ce-037b-4cae-adb1-10a28bc95189}, !- Schedule Ruleset Name
  1,                                      !- Rule Order
  {b7a09a45-1319-4662-bb20-a8307ab1b16c}, !- Day Schedule Name
  ,                                       !- Apply Sunday
  Yes,                                    !- Apply Monday
  Yes,                                    !- Apply Tuesday
  Yes,                                    !- Apply Wednesday
  Yes,                                    !- Apply Thursday
  Yes;                                    !- Apply Friday

OS:Schedule:Day,
  {b7a09a45-1319-4662-bb20-a8307ab1b16c}, !- Handle
  Medium Office Lighting Weekdays Schedule, !- Name
  {32cea522-b098-4639-baef-45cdbc3a0df9}, !- Schedule Type Limits Name
  ,                                       !- Interpolate to Timestep
  5,                                      !- Hour 1
  0,                                      !- Minute 1
  0.05,                                   !- Value Until Time 1
  7,                                      !- Hour 2
  0,                                      !- Minute 2
  0.1,                                    !- Value Until Time 2
  8,                                      !- Hour 3
  0,                                      !- Minute 3
  0.3,                                    !- Value Until Time 3
  17,                                     !- Hour 4
  0,                                      !- Minute 4
  0.9,                                    !- Value Until Time 4
  18,                                     !- Hour 5
  0,                                      !- Minute 5
  0.7,                                    !- Value Until Time 5
  20,                                     !- Hour 6
  0,                                      !- Minute 6
  0.5,                                    !- Value Until Time 6
  22,                                     !- Hour 7
  0,                                      !- Minute 7
  0.3,                                    !- Value Until Time 7
  23,                                     !- Hour 8
  0,                                      !- Minute 8
  0.1,                                    !- Value Until Time 8
  24,                                     !- Hour 9
  0,                                      !- Minute 9
  0.05;                                   !- Value Until Time 9

OS:Schedule:Rule,
  {e957ad4d-f789-4ecf-8e9e-a86941e578a3}, !- Handle
  Medium Office Lighting Schedule Saturday Rule, !- Name
  {4e0f11ce-037b-4cae-adb1-10a28bc95189}, !- Schedule Ruleset Name
  0,                                      !- Rule Order
  {a250812c-fb19-49af-b9db-a08e2c12afe0}, !- Day Schedule Name
  ,                                       !- Apply Sunday
  ,                                       !- Apply Monday
  ,                                       !- Apply Tuesday
  ,                                       !- Apply Wednesday
  ,                                       !- Apply Thursday
  ,                                       !- Apply Friday
  Yes;                                    !- Apply Saturday

OS:Schedule:Day,
  {a250812c-fb19-49af-b9db-a08e2c12afe0}, !- Handle
  Medium Office Lighting Saturday Schedule, !- Name
  {32cea522-b098-4639-baef-45cdbc3a0df9}, !- Schedule Type Limits Name
  ,                                       !- Interpolate to Timestep
  6,                                      !- Hour 1
  0,                                      !- Minute 1
  0.05,                                   !- Value Until Time 1
  8,                                      !- Hour 2
  0,                                      !- Minute 2
  0.1,                                    !- Value Until Time 2
  14,                                     !- Hour 3
  0,                                      !- Minute 3
  0.5,                                    !- Value Until Time 3
  17,                                     !- Hour 4
  0,                                      !- Minute 4
  0.15,                                   !- Value Until Time 4
  24,                                     !- Hour 5
  0,                                      !- Minute 5
  0.05;                                   !- Value Until Time 5

OS:Schedule:Ruleset,
  {79de8aa5-97ac-4792-8071-13ed1a974a36}, !- Handle
  Medium Office Electric Equipment Schedule, !- Name
  {32cea522-b098-4639-baef-45cdbc3a0df9}, !- Schedule Type Limits Name
  {d0f85e4e-327b-4d19-8a11-b1f0f4a85ad8}, !- Default Day Schedule Name
  {1157fcaa-b8a1-4944-87fe-598c3d4b7a1f}, !- Summer Design Day Schedule Name
  {2e3b6c2e-a32c-49ed-ac3b-03139f63a9de}; !- Winter Design Day Schedule Name

OS:Schedule:Day,
  {d0f85e4e-327b-4d19-8a11-b1f0f4a85ad8}, !- Handle
  Medium Office Electric Equipment All Other Days Schedule, !- Name
  {32cea522-b098-4639-baef-45cdbc3a0df9}, !- Schedule Type Limits Name
  ,                                       !- Interpolate to Timestep
  24,                                     !- Hour 1
  0,                                      !- Minute 1
  0.3;                                    !- Value Until Time 1

OS:Schedule:Day,
  {53f799f4-97d4-47b7-a183-29308c6d31a8}, !- Handle
  Medium Office Electric Equipment Summer Design Day Schedule, !- Name
  ,                                       !- Schedule Type Limits Name
  ,                                       !- Interpolate to Timestep
  6,                                      !- Hour 1
  0,                                      !- Minute 1
  1,                                      !- Value Until Time 1
  24,                                     !- Hour 2
  0,                                      !- Minute 2
  0;                                      !- Value Until Time 2

OS:Schedule:Day,
  {1157fcaa-b8a1-4944-87fe-598c3d4b7a1f}, !- Handle
  Medium Office Electric Equipment Summer Design Day Schedule 1, !- Name
  {32cea522-b098-4639-baef-45cdbc3a0df9}, !- Schedule Type Limits Name
  ,                                       !- Interpolate to Timestep
  6,                                      !- Hour 1
  0,                                      !- Minute 1
  1,                                      !- Value Until Time 1
  24,                                     !- Hour 2
  0,                                      !- Minute 2
  0;                                      !- Value Until Time 2

OS:Schedule:Day,
  {a794a723-ff42-4e63-a4ff-712b4dd56baf}, !- Handle
  Medium Office Electric Equipment Winter Design Day Schedule, !- Name
  ,                                       !- Schedule Type Limits Name
  ,                                       !- Interpolate to Timestep
  24,                                     !- Hour 1
  0,                                      !- Minute 1
  0;                                      !- Value Until Time 1

OS:Schedule:Day,
  {2e3b6c2e-a32c-49ed-ac3b-03139f63a9de}, !- Handle
  Medium Office Electric Equipment Winter Design Day Schedule 1, !- Name
  {32cea522-b098-4639-baef-45cdbc3a0df9}, !- Schedule Type Limits Name
  ,                                       !- Interpolate to Timestep
  24,                                     !- Hour 1
  0,                                      !- Minute 1
  0;                                      !- Value Until Time 1

OS:Schedule:Rule,
  {e336ccf8-56f7-4c18-a08f-3502a7821bba}, !- Handle
  Medium Office Electric Equipment Schedule Weekdays Rule, !- Name
  {79de8aa5-97ac-4792-8071-13ed1a974a36}, !- Schedule Ruleset Name
  1,                                      !- Rule Order
  {d19920ba-e1c9-4b78-888e-2502972ed7a0}, !- Day Schedule Name
  ,                                       !- Apply Sunday
  Yes,                                    !- Apply Monday
  Yes,                                    !- Apply Tuesday
  Yes,                                    !- Apply Wednesday
  Yes,                                    !- Apply Thursday
  Yes;                                    !- Apply Friday

OS:Schedule:Day,
  {d19920ba-e1c9-4b78-888e-2502972ed7a0}, !- Handle
  Medium Office Electric Equipment Weekdays Schedule, !- Name
  {32cea522-b098-4639-baef-45cdbc3a0df9}, !- Schedule Type Limits Name
  ,                                       !- Interpolate to Timestep
  8,                                      !- Hour 1
  0,                                      !- Minute 1
  0.4,                                    !- Value Until Time 1
  12,                                     !- Hour 2
  0,                                      !- Minute 2
  0.9,                                    !- Value Until Time 2
  13,                                     !- Hour 3
  0,                                      !- Minute 3
  0.8,                                    !- Value Until Time 3
  17,                                     !- Hour 4
  0,                                      !- Minute 4
  0.9,                                    !- Value Until Time 4
  18,                                     !- Hour 5
  0,                                      !- Minute 5
  0.8,                                    !- Value Until Time 5
  20,                                     !- Hour 6
  0,                                      !- Minute 6
  0.6,                                    !- Value Until Time 6
  22,                                     !- Hour 7
  0,                                      !- Minute 7
  0.5,                                    !- Value Until Time 7
  24,                                     !- Hour 8
  0,                                      !- Minute 8
  0.4;                                    !- Value Until Time 8

OS:Schedule:Rule,
  {99df4637-74a7-49ae-947b-2a062f8d01d5}, !- Handle
  Medium Office Electric Equipment Schedule Saturday Rule, !- Name
  {79de8aa5-97ac-4792-8071-13ed1a974a36}, !- Schedule Ruleset Name
  0,                                      !- Rule Order
  {b1532a18-4ca0-4988-b59e-ffb332f36b4c}, !- Day Schedule Name
  ,                                       !- Apply Sunday
  ,                                       !- Apply Monday
  ,                                       !- Apply Tuesday
  ,                                       !- Apply Wednesday