
OS:Version,
  {0f12cfff-8422-4def-8296-68c1658bfdc2}, !- Handle
  0.10.4;                                 !- Version Identifier

OS:SimulationControl,
  {b5008190-fbc5-4b9b-82bf-bf006a34d139}, !- Handle
  Yes,                                    !- Do Zone Sizing Calculation
  Yes,                                    !- Do System Sizing Calculation
  ,                                       !- Do Plant Sizing Calculation
  No,                                     !- Run Simulation for Sizing Periods
  Yes;                                    !- Run Simulation for Weather File Run Periods

OS:Timestep,
  {71ccfe22-6afc-4f84-b82c-57d695fc570a}, !- Handle
  6;                                      !- Number of Timesteps per Hour

OS:RunPeriod,
  {6f34ded7-b73b-48b4-8639-a9d61c47a5b5}, !- Handle
  Run Period 1,                           !- Name
  1,                                      !- Begin Month
  1,                                      !- Begin Day of Month
  12,                                     !- End Month
  31,                                     !- End Day of Month
  No,                                     !- Use Weather File Holidays and Special Days
  No,                                     !- Use Weather File Daylight Saving Period
  No,                                     !- Apply Weekend Holiday Rule
  Yes,                                    !- Use Weather File Rain Indicators
  Yes,                                    !- Use Weather File Snow Indicators
  1;                                      !- Number of Times Runperiod to be Repeated

OS:SurfaceConvectionAlgorithm:Inside,
  {cd108548-69ea-4cfc-8f5d-91a4121a8b88}, !- Handle
  TARP;                                   !- Algorithm

OS:SurfaceConvectionAlgorithm:Outside,
  {045420b4-c64f-4454-887f-30c176f496ca}, !- Handle
  DOE-2;                                  !- Algorithm

OS:HeatBalanceAlgorithm,
  {b4cda3a0-77cc-403e-8431-638a4810ad56}, !- Handle
  ConductionTransferFunction,             !- Algorithm
  200;                                    !- Surface Temperature Upper Limit {F}

OS:ZoneAirHeatBalanceAlgorithm,
  {4d42d49f-6b92-4716-a935-647a9a10aae4}, !- Handle
  AnalyticalSolution;                     !- Algorithm

OS:ConvergenceLimits,
  {e60166b0-97ae-423c-ab9c-428c3d8e3792}; !- Handle

OS:ShadowCalculation,
  {58af9b95-1948-4b3a-9e1f-65aadb78e736}, !- Handle
  7,                                      !- Calculation Frequency
  15000;                                  !- Maximum Figures in Shadow Overlap Calculations

OS:Site,
  {1eed6fd3-1c85-44d7-996e-08ac138298c0}, !- Handle
  Site 1,                                 !- Name
  41.77,                                  !- Latitude {deg}
  -87.75,                                 !- Longitude {deg}
  -6,                                     !- Time Zone {hr}
  190,                                    !- Elevation {m}
  ;                                       !- Terrain

OS:Site:GroundTemperature:BuildingSurface,
  {136d5f9d-a306-457b-8d5d-075b44cbd70b}, !- Handle
  19.527,                                 !- January Ground Temperature {C}
  19.502,                                 !- February Ground Temperature {C}
  19.536,                                 !- March Ground Temperature {C}
  19.598,                                 !- April Ground Temperature {C}
  20.002,                                 !- May Ground Temperature {C}
  21.64,                                  !- June Ground Temperature {C}
  22.225,                                 !- July Ground Temperature {C}
  22.375,                                 !- August Ground Temperature {C}
  21.449,                                 !- September Ground Temperature {C}
  20.121,                                 !- October Ground Temperature {C}
  19.802,                                 !- November Ground Temperature {C}
  19.633;                                 !- December Ground Temperature {C}

OS:Site:WaterMainsTemperature,
  {ce2774d3-4007-44cb-8fb8-9eb85174989b}, !- Handle
  Correlation,                            !- Calculation Method
  ,                                       !- Temperature Schedule Name
  9.69,                                   !- Annual Average Outdoor Air Temperature {C}
  28.1;                                   !- Maximum Difference In Monthly Average Outdoor Air Temperatures {deltaC}

OS:SizingPeriod:DesignDay,
  {0bcea665-b315-40a1-ba10-db1cf35a6580}, !- Handle
  Sizing Period Design Day 1,             !- Name
  -20.6,                                  !- Maximum Dry-Bulb Temperature {C}
  0,                                      !- Daily Dry-Bulb Temperature Range {deltaC}
  -20.6,                                  !- Humidity Indicating Conditions at Maximum Dry-Bulb {BasedOnField A3}
  99063,                                  !- Barometric Pressure {Pa}
  4.9,                                    !- Wind Speed {m/s}
  270,                                    !- Wind Direction {deg}
  0,                                      !- Sky Clearness
  0,                                      !- Rain Indicator
  0,                                      !- Snow Indicator
  21,                                     !- Day of Month
  1,                                      !- Month
  WinterDesignDay,                        !- Day Type
  0,                                      !- Daylight Saving Time Indicator
  WetBulb,                                !- Humidity Indicating Type
  ,                                       !- Humidity Indicating Day Schedule Name
  DefaultMultipliers,                     !- Dry-Bulb Temperature Range Modifier Type
  ,                                       !- Dry-Bulb Temperature Range Modifier Schedule Name
  AshraeClearSky;                         !- Solar Model Indicator

OS:SizingPeriod:DesignDay,
  {5a33df7e-8ebd-4c8f-8b48-887bad3f8541}, !- Handle
  Sizing Period Design Day 2,             !- Name
  33.2,                                   !- Maximum Dry-Bulb Temperature {C}
  10.7,                                   !- Daily Dry-Bulb Temperature Range {deltaC}
  23.8,                                   !- Humidity Indicating Conditions at Maximum Dry-Bulb {BasedOnField A3}
  99063,                                  !- Barometric Pressure {Pa}
  5.3,                                    !- Wind Speed {m/s}
  230,                                    !- Wind Direction {deg}
  1,                                      !- Sky Clearness
  0,                                      !- Rain Indicator
  0,                                      !- Snow Indicator
  21,                                     !- Day of Month
  7,                                      !- Month
  SummerDesignDay,                        !- Day Type
  0,                                      !- Daylight Saving Time Indicator
  WetBulb,                                !- Humidity Indicating Type
  ,                                       !- Humidity Indicating Day Schedule Name
  DefaultMultipliers,                     !- Dry-Bulb Temperature Range Modifier Type
  ,                                       !- Dry-Bulb Temperature Range Modifier Schedule Name
  AshraeClearSky;                         !- Solar Model Indicator

OS:ScheduleTypeLimits,
  {b8fd8305-099a-4de3-999a-1cacb23b05d6}, !- Handle
  Temperature,                            !- Name
  -60,                                    !- Lower Limit Value {BasedOnField A4}
  200,                                    !- Upper Limit Value {BasedOnField A4}
  CONTINUOUS,                             !- Numeric Type
  Temperature;                            !- Unit Type

OS:DefaultScheduleSet,
  {a83ec853-a18d-4bfe-8975-bbd2e5b56eb5}, !- Handle
  Default Schedules,                      !- Name
  ,                                       !- Hours of Operation Schedule Name
  {e065a034-301d-46dd-a4ff-32ba0ff2ce12}, !- Number of People Schedule Name
  {85e3d7ff-c53f-44b6-9ebf-f9952d388860}, !- People Activity Level Schedule Name
  {92fff912-4f47-4fae-ac89-8cb66b1c10f8}, !- Lighting Schedule Name
  {bf1e5158-9830-4625-b1a0-12d600aa133f}, !- Electric Equipment Schedule Name
  {89d79074-0660-49ca-8edf-0bd08c05ec75}, !- Gas Equipment Schedule Name
  {ae27271f-9598-4c33-bcf8-09d4748b955c}, !- Hot Water Equipment Schedule Name
  {4c670180-4347-48b1-9786-c96d30f1a115}, !- Infiltration Schedule Name
  ,                                       !- Steam Equipment Schedule Name
  ;                                       !- Other Equipment Schedule Name

OS:Schedule:Ruleset,
  {e065a034-301d-46dd-a4ff-32ba0ff2ce12}, !- Handle
  Medium Office Number of People Schedule, !- Name
  {08247784-cf3d-4ca7-af58-b77047f5595c}, !- Schedule Type Limits Name
  {776173be-16f0-4eb0-b1e1-10e2b51eda90}, !- Default Day Schedule Name
  {252fd8b7-343e-4bda-bcaa-9f578da0c8b9}; !- Summer Design Day Schedule Name

OS:Schedule:Day,
  {776173be-16f0-4eb0-b1e1-10e2b51eda90}, !- Handle
  Medium Office Number of People All Other Days Schedule, !- Name
  {08247784-cf3d-4ca7-af58-b77047f5595c}, !- Schedule Type Limits Name
  ,                                       !- Interpolate to Timestep
  24,                                     !- Hour 1
  0,                                      !- Minute 1
  0;                                      !- Value Until Time 1

OS:Schedule:Day,
  {f22f1ccc-a29c-4792-994c-d4e55b7a695b}, !- Handle
  Medium Office Number of People Summer Design Day Schedule, !- Name
  ,                                       !- Schedule Type Limits Name
  ,                                       !- Interpolate to Timestep
  6,                                      !- Hour 1
  0,                                      !- Minute 1
  0,                                      !- Value Until Time 1
  22,                                     !- Hour 2
  0,                                      !- Minute 2
  1,                                      !- Value Until Time 2
  24,                                     !- Hour 3
  0,                                      !- Minute 3
  0.05;                                   !- Value Until Time 3

OS:Schedule:Day,
  {252fd8b7-343e-4bda-bcaa-9f578da0c8b9}, !- Handle
  Medium Office Number of People Summer Design Day Schedule 1, !- Name
  {08247784-cf3d-4ca7-af58-b77047f5595c}, !- Schedule Type Limits Name
  ,                                       !- Interpolate to Timestep
  6,                                      !- Hour 1
  0,                                      !- Minute 1
  0,                                      !- Value Until Time 1
  22,                                     !- Hour 2
  0,                                      !- Minute 2
  1,                                      !- Value Until Time 2
  24,                                     !- Hour 3
  0,                                      !- Minute 3
  0.05;                                   !- Value Until Time 3

OS:Schedule:Rule,
  {3f17a0c7-85ad-4553-9082-0cbb1249a974}, !- Handle
  Medium Office Number of People Schedule Weekdays Rule, !- Name
  {e065a034-301d-46dd-a4ff-32ba0ff2ce12}, !- Schedule Ruleset Name
  1,                                      !- Rule Order
  {7b55c050-877f-45cf-b5e3-fc1273c84f9d}, !- Day Schedule Name
  ,                                       !- Apply Sunday
  Yes,                                    !- Apply Monday
  Yes,                                    !- Apply Tuesday
  Yes,                                    !- Apply Wednesday
  Yes,                                    !- Apply Thursday
  Yes;                                    !- Apply Friday

OS:Schedule:Day,
  {7b55c050-877f-45cf-b5e3-fc1273c84f9d}, !- Handle
  Medium Office Number of People Weekdays Schedule, !- Name
  {08247784-cf3d-4ca7-af58-b77047f5595c}, !- Schedule Type Limits Name
  ,                                       !- Interpolate to Timestep
  6,                                      !- Hour 1
  0,                                      !- Minute 1
  0,                                      !- Value Until Time 1
  7,                                      !- Hour 2
  0,                                      !- Minute 2
  0.1,                                    !- Value Until Time 2
  8,                                      !- Hour 3
  0,                                      !- Minute 3
  0.2,                                    !- Value Until Time 3
  12,                                     !- Hour 4
  0,                                      !- Minute 4
  0.95,                                   !- Value Until Time 4
  13,                                     !- Hour 5
  0,                                      !- Minute 5
  0.5,                                    !- Value Until Time 5
  17,                                     !- Hour 6
  0,                                      !- Minute 6
  0.95,                                   !- Value Until Time 6
  18,                                     !- Hour 7
  0,                                      !- Minute 7
  0.7,                                    !- Value Until Time 7
  20,                                     !- Hour 8
  0,                                      !- Minute 8
  0.4,                                    !- Value Until Time 8
  22,                                     !- Hour 9
  0,                                      !- Minute 9
  0.1,                                    !- Value Until Time 9
  24,                                     !- Hour 10
  0,                                      !- Minute 10
  0.05;                                   !- Value Until Time 10

OS:Schedule:Rule,
  {eb979303-d8cb-4e1c-bca1-2062da76dc51}, !- Handle
  Medium Office Number of People Schedule Saturday Rule, !- Name
  {e065a034-301d-46dd-a4ff-32ba0ff2ce12}, !- Schedule Ruleset Name
  0,                                      !- Rule Order
  {36bf1453-3146-490f-b34f-5157298d51c1}, !- Day Schedule Name
  ,                                       !- Apply Sunday
  ,                                       !- Apply Monday
  ,                                       !- Apply Tuesday
  ,                                       !- Apply Wednesday
  ,                                       !- Apply Thursday
  ,                                       !- Apply Friday
  Yes;                                    !- Apply Saturday

OS:Schedule:Day,
  {36bf1453-3146-490f-b34f-5157298d51c1}, !- Handle
  Medium Office Number of People Saturday Schedule, !- Name
  {08247784-cf3d-4ca7-af58-b77047f5595c}, !- Schedule Type Limits Name
  ,                                       !- Interpolate to Timestep
  6,                                      !- Hour 1
  0,                                      !- Minute 1
  0,                                      !- Value Until Time 1
  8,                                      !- Hour 2
  0,                                      !- Minute 2
  0.1,                                    !- Value Until Time 2
  14,                                     !- Hour 3
  0,                                      !- Minute 3
  0.5,                                    !- Value Until Time 3
  17,                                     !- Hour 4
  0,                                      !- Minute 4
  0.1,                                    !- Value Until Time 4
  24,                                     !- Hour 5
  0,                                      !- Minute 5
  0;                                      !- Value Until Time 5

OS:ScheduleTypeLimits,
  {08247784-cf3d-4ca7-af58-b77047f5595c}, !- Handle
  Fractional,                             !- Name
  0,                                      !- Lower Limit Value {BasedOnField A4}
  1,                                      !- Upper Limit Value {BasedOnField A4}
  Continuous;                             !- Numeric Type

OS:Schedule:Ruleset,
  {85e3d7ff-c53f-44b6-9ebf-f9952d388860}, !- Handle
  Medium Office People Activity Level Schedule, !- Name
  {cd9dee5d-2653-4812-afae-8be72a073a6e}, !- Schedule Type Limits Name
  {11fd7038-ce8a-4721-9156-69c24a33d351}; !- Default Day Schedule Name

OS:Schedule:Day,
  {11fd7038-ce8a-4721-9156-69c24a33d351}, !- Handle
  Medium Office People Activity Level All Days Schedule, !- Name
  {cd9dee5d-2653-4812-afae-8be72a073a6e}, !- Schedule Type Limits Name
  ,                                       !- Interpolate to Timestep
  24,                                     !- Hour 1
  0,                                      !- Minute 1
  120;                                    !- Value Until Time 1

OS:ScheduleTypeLimits,
  {cd9dee5d-2653-4812-afae-8be72a073a6e}, !- Handle
  ActivityLevel,                          !- Name
  0,                                      !- Lower Limit Value {BasedOnField A4}
  ,                                       !- Upper Limit Value {BasedOnField A4}
  Continuous,                             !- Numeric Type
  ActivityLevel;                          !- Unit Type

OS:Schedule:Ruleset,
  {92fff912-4f47-4fae-ac89-8cb66b1c10f8}, !- Handle
  Medium Office Lighting Schedule,        !- Name
  {08247784-cf3d-4ca7-af58-b77047f5595c}, !- Schedule Type Limits Name
  {5511bd83-7dbb-4c39-99d9-4108d130ad65}, !- Default Day Schedule Name
  {e859e71f-d9a0-43ae-a9c8-041dec4378dc}, !- Summer Design Day Schedule Name
  {05bc30ad-7028-4c31-b781-a364beb28cae}; !- Winter Design Day Schedule Name

OS:Schedule:Day,
  {5511bd83-7dbb-4c39-99d9-4108d130ad65}, !- Handle
  Medium Office Lighting All Other Days Schedule, !- Name
  {08247784-cf3d-4ca7-af58-b77047f5595c}, !- Schedule Type Limits Name
  ,                                       !- Interpolate to Timestep
  24,                                     !- Hour 1
  0,                                      !- Minute 1
  0.05;                                   !- Value Until Time 1

OS:Schedule:Day,
  {8e5606f9-a8f6-4f67-ad51-1be699f345fd}, !- Handle
  Medium Office Lighting Summer Design Day Schedule, !- Name
  ,                                       !- Schedule Type Limits Name
  ,                                       !- Interpolate to Timestep
  6,                                      !- Hour 1
  0,                                      !- Minute 1
  1,                                      !- Value Until Time 1
  24,                                     !- Hour 2
  0,                                      !- Minute 2
  0;                                      !- Value Until Time 2

OS:Schedule:Day,
  {e859e71f-d9a0-43ae-a9c8-041dec4378dc}, !- Handle
  Medium Office Lighting Summer Design Day Schedule 1, !- Name
  {08247784-cf3d-4ca7-af58-b77047f5595c}, !- Schedule Type Limits Name
  ,                                       !- Interpolate to Timestep
  6,                                      !- Hour 1
  0,                                      !- Minute 1
  1,                                      !- Value Until Time 1
  24,                                     !- Hour 2
  0,                                      !- Minute 2
  0;                                      !- Value Until Time 2

OS:Schedule:Day,
  {71975b82-b883-491b-9777-641a843076ef}, !- Handle
  Medium Office Lighting Winter Design Day Schedule, !- Name
  ,                                       !- Schedule Type Limits Name
  ,                                       !- Interpolate to Timestep
  24,                                     !- Hour 1
  0,                                      !- Minute 1
  0;                                      !- Value Until Time 1

OS:Schedule:Day,
  {05bc30ad-7028-4c31-b781-a364beb28cae}, !- Handle
  Medium Office Lighting Winter Design Day Schedule 1, !- Name
  {08247784-cf3d-4ca7-af58-b77047f5595c}, !- Schedule Type Limits Name
  ,                                       !- Interpolate to Timestep
  24,                                     !- Hour 1
  0,                                      !- Minute 1
  0;                                      !- Value Until Time 1

OS:Schedule:Rule,
  {b839775d-ec32-457a-9eb7-b63485d28a02}, !- Handle
  Medium Office Lighting Schedule Weekdays Rule, !- Name
  {92fff912-4f47-4fae-ac89-8cb66b1c10f8}, !- Schedule Ruleset Name
  1,                                      !- Rule Order
  {8f015f32-8a09-48ee-b74d-999c16a29359}, !- Day Schedule Name
  ,                                       !- Apply Sunday
  Yes,                                    !- Apply Monday
  Yes,                                    !- Apply Tuesday
  Yes,                                    !- Apply Wednesday
  Yes,                                    !- Apply Thursday
  Yes;                                    !- Apply Friday

OS:Schedule:Day,
  {8f015f32-8a09-48ee-b74d-999c16a29359}, !- Handle
  Medium Office Lighting Weekdays Schedule, !- Name
  {08247784-cf3d-4ca7-af58-b77047f5595c}, !- Schedule Type Limits Name
  ,                                       !- Interpolate to Timestep
  5,                                      !- Hour 1
  0,                                      !- Minute 1
  0.05,                                   !- Value Until Time 1
  7,                                      !- Hour 2
  0,                                      !- Minute 2
  0.1,                                    !- Value Until Time 2
  8,                                      !- Hour 3
  0,                                      !- Minute 3
  0.3,                                    !- Value Until Time 3
  17,                                     !- Hour 4
  0,                                      !- Minute 4
  0.9,                                    !- Value Until Time 4
  18,                                     !- Hour 5
  0,                                      !- Minute 5
  0.7,                                    !- Value Until Time 5
  20,                                     !- Hour 6
  0,                                      !- Minute 6
  0.5,                                    !- Value Until Time 6
  22,                                     !- Hour 7
  0,                                      !- Minute 7
  0.3,                                    !- Value Until Time 7
  23,                                     !- Hour 8
  0,                                      !- Minute 8
  0.1,                                    !- Value Until Time 8
  24,                                     !- Hour 9
  0,                                      !- Minute 9
  0.05;                                   !- Value Until Time 9

OS:Schedule:Rule,
  {d95fa004-6e05-44e3-9b3c-352027eeb78f}, !- Handle
  Medium Office Lighting Schedule Saturday Rule, !- Name
  {92fff912-4f47-4fae-ac89-8cb66b1c10f8}, !- Schedule Ruleset Name
  0,                                      !- Rule Order
  {31012cf8-2a16-425e-87a9-d4017bba1722}, !- Day Schedule Name
  ,                                       !- Apply Sunday
  ,                                       !- Apply Monday
  ,                                       !- Apply Tuesday
  ,                                       !- Apply Wednesday
  ,                                       !- Apply Thursday
  ,                                       !- Apply Friday
  Yes;                                    !- Apply Saturday

OS:Schedule:Day,
  {31012cf8-2a16-425e-87a9-d4017bba1722}, !- Handle
  Medium Office Lighting Saturday Schedule, !- Name
  {08247784-cf3d-4ca7-af58-b77047f5595c}, !- Schedule Type Limits Name
  ,                                       !- Interpolate to Timestep
  6,                                      !- Hour 1
  0,                                      !- Minute 1
  0.05,                                   !- Value Until Time 1
  8,                                      !- Hour 2
  0,                                      !- Minute 2
  0.1,                                    !- Value Until Time 2
  14,                                     !- Hour 3
  0,                                      !- Minute 3
  0.5,                                    !- Value Until Time 3
  17,                                     !- Hour 4
  0,                                      !- Minute 4
  0.15,                                   !- Value Until Time 4
  24,                                     !- Hour 5
  0,                                      !- Minute 5
  0.05;                                   !- Value Until Time 5

OS:Schedule:Ruleset,
  {bf1e5158-9830-4625-b1a0-12d600aa133f}, !- Handle
  Medium Office Electric Equipment Schedule, !- Name
  {08247784-cf3d-4ca7-af58-b77047f5595c}, !- Schedule Type Limits Name
  {bf6da28f-5f4d-46d8-b65d-f70ecfc78c4a}, !- Default Day Schedule Name
  {4237a69e-2ba6-4ba7-bcaf-7a73dca10be4}, !- Summer Design Day Schedule Name
  {59bf8624-c5e7-4034-9395-df3705950f1f}; !- Winter Design Day Schedule Name

OS:Schedule:Day,
  {bf6da28f-5f4d-46d8-b65d-f70ecfc78c4a}, !- Handle
  Medium Office Electric Equipment All Other Days Schedule, !- Name
  {08247784-cf3d-4ca7-af58-b77047f5595c}, !- Schedule Type Limits Name
  ,                                       !- Interpolate to Timestep
  24,                                     !- Hour 1
  0,                                      !- Minute 1
  0.3;                                    !- Value Until Time 1

OS:Schedule:Day,
  {425bc38a-ac70-4802-b776-5bd2163a6570}, !- Handle
  Medium Office Electric Equipment Summer Design Day Schedule, !- Name
  ,                                       !- Schedule Type Limits Name
  ,                                       !- Interpolate to Timestep
  6,                                      !- Hour 1
  0,                                      !- Minute 1
  1,                                      !- Value Until Time 1
  24,                                     !- Hour 2
  0,                                      !- Minute 2
  0;                                      !- Value Until Time 2

OS:Schedule:Day,
  {4237a69e-2ba6-4ba7-bcaf-7a73dca10be4}, !- Handle
  Medium Office Electric Equipment Summer Design Day Schedule 1, !- Name
  {08247784-cf3d-4ca7-af58-b77047f5595c}, !- Schedule Type Limits Name
  ,                                       !- Interpolate to Timestep
  6,                                      !- Hour 1
  0,                                      !- Minute 1
  1,                                      !- Value Until Time 1
  24,                                     !- Hour 2
  0,                                      !- Minute 2
  0;                                      !- Value Until Time 2

OS:Schedule:Day,
  {ce7b0b6d-53f5-4f4a-941f-14a698b98097}, !- Handle
  Medium Office Electric Equipment Winter Design Day Schedule, !- Name
  ,                                       !- Schedule Type Limits Name
  ,                                       !- Interpolate to Timestep
  24,                                     !- Hour 1
  0,                                      !- Minute 1
  0;                                      !- Value Until Time 1

OS:Schedule:Day,
  {59bf8624-c5e7-4034-9395-df3705950f1f}, !- Handle
  Medium Office Electric Equipment Winter Design Day Schedule 1, !- Name
  {08247784-cf3d-4ca7-af58-b77047f5595c}, !- Schedule Type Limits Name
  ,                                       !- Interpolate to Timestep
  24,                                     !- Hour 1
  0,                                      !- Minute 1
  0;                                      !- Value Until Time 1

OS:Schedule:Rule,
  {dbcc66eb-7f82-493a-93f0-5ee6a7015463}, !- Handle
  Medium Office Electric Equipment Schedule Weekdays Rule, !- Name
  {bf1e5158-9830-4625-b1a0-12d600aa133f}, !- Schedule Ruleset Name
  1,                                      !- Rule Order
  {cc652238-141f-43e0-899e-2e989eec6398}, !- Day Schedule Name
  ,                                       !- Apply Sunday
  Yes,                                    !- Apply Monday
  Yes,                                    !- Apply Tuesday
  Yes,                                    !- Apply Wednesday
  Yes,                                    !- Apply Thursday
  Yes;                                    !- Apply Friday

OS:Schedule:Day,
  {cc652238-141f-43e0-899e-2e989eec6398}, !- Handle
  Medium Office Electric Equipment Weekdays Schedule, !- Name
  {08247784-cf3d-4ca7-af58-b77047f5595c}, !- Schedule Type Limits Name
  ,                                       !- Interpolate to Timestep
  8,                                      !- Hour 1
  0,                                      !- Minute 1
  0.4,                                    !- Value Until Time 1
  12,                                     !- Hour 2
  0,                                      !- Minute 2
  0.9,                                    !- Value Until Time 2
  13,                                     !- Hour 3
  0,                                      !- Minute 3
  0.8,                                    !- Value Until Time 3
  17,                                     !- Hour 4
  0,                                      !- Minute 4
  0.9,                                    !- Value Until Time 4
  18,                                     !- Hour 5
  0,                                      !- Minute 5
  0.8,                                    !- Value Until Time 5
  20,                                     !- Hour 6
  0,                                      !- Minute 6
  0.6,                                    !- Value Until Time 6
  22,                                     !- Hour 7
  0,                                      !- Minute 7
  0.5,                                    !- Value Until Time 7
  24,                                     !- Hour 8
  0,                                      !- Minute 8
  0.4;                                    !- Value Until Time 8

OS:Schedule:Rule,
  {fec95ac0-8591-4eaf-863d-c1ce69b0969f}, !- Handle
  Medium Office Electric Equipment Schedule Saturday Rule, !- Name
  {bf1e5158-9830-4625-b1a0-12d600aa133f}, !- Schedule Ruleset Name
  0,                                      !- Rule Order
  {a6cf6770-192a-4f37-b923-032dbfa39e2b}, !- Day Schedule Name
  ,                                       !- Apply Sunday
  ,                                       !- Apply Monday
  ,                                       !- Apply Tuesday
  ,                                       !- Apply Wednesday