
OS:Version,
  {907c0656-82b1-4f39-884c-7cb9a770d3ff}, !- Handle
  1.0.6;                                  !- Version Identifier

OS:SimulationControl,
  {f01c2ad9-6b4b-4b38-9f58-2cb8f54ae89b}, !- Handle
  Yes,                                    !- Do Zone Sizing Calculation
  Yes,                                    !- Do System Sizing Calculation
  ,                                       !- Do Plant Sizing Calculation
  No,                                     !- Run Simulation for Sizing Periods
  Yes;                                    !- Run Simulation for Weather File Run Periods

OS:Timestep,
  {4621b125-33d9-4e24-b8dc-a4ab43a661b5}, !- Handle
  6;                                      !- Number of Timesteps per Hour

OS:RunPeriod,
  {31b9fb2f-b580-4b6f-b73c-9c1a1f478fcd}, !- Handle
  Run Period 1,                           !- Name
  1,                                      !- Begin Month
  1,                                      !- Begin Day of Month
  12,                                     !- End Month
  31,                                     !- End Day of Month
  No,                                     !- Use Weather File Holidays and Special Days
  No,                                     !- Use Weather File Daylight Saving Period
  No,                                     !- Apply Weekend Holiday Rule
  Yes,                                    !- Use Weather File Rain Indicators
  Yes,                                    !- Use Weather File Snow Indicators
  1;                                      !- Number of Times Runperiod to be Repeated

OS:SurfaceConvectionAlgorithm:Inside,
  {a504d57e-6453-4614-af9a-61a4f3d8c523}, !- Handle
  TARP;                                   !- Algorithm

OS:SurfaceConvectionAlgorithm:Outside,
  {b2bd31a9-b78b-472a-a456-5b4316cb280c}, !- Handle
  DOE-2;                                  !- Algorithm

OS:HeatBalanceAlgorithm,
  {d521148f-2d36-441c-b606-5faa98c0a4f8}, !- Handle
  ConductionTransferFunction,             !- Algorithm
  200;                                    !- Surface Temperature Upper Limit {F}

OS:ZoneAirHeatBalanceAlgorithm,
  {61f43b19-ded9-4b92-8dab-3c3dfb587a96}, !- Handle
  AnalyticalSolution;                     !- Algorithm

OS:ConvergenceLimits,
  {01270a8c-3d90-4dea-93ae-120898287cb5}; !- Handle

OS:ShadowCalculation,
  {eadbef67-6fbd-4769-94f0-2d2099cb4463}, !- Handle
  7,                                      !- Calculation Frequency
  15000;                                  !- Maximum Figures in Shadow Overlap Calculations

OS:Site,
  {d4f1d213-6a9f-47e1-890b-26f699494bda}, !- Handle
  Site 1,                                 !- Name
  41.77,                                  !- Latitude {deg}
  -87.75,                                 !- Longitude {deg}
  -6,                                     !- Time Zone {hr}
  190,                                    !- Elevation {m}
  ;                                       !- Terrain

OS:Site:GroundTemperature:BuildingSurface,
  {290f71e3-a2cc-4bb5-9725-ea3d15023c17}, !- Handle
  19.527,                                 !- January Ground Temperature {C}
  19.502,                                 !- February Ground Temperature {C}
  19.536,                                 !- March Ground Temperature {C}
  19.598,                                 !- April Ground Temperature {C}
  20.002,                                 !- May Ground Temperature {C}
  21.64,                                  !- June Ground Temperature {C}
  22.225,                                 !- July Ground Temperature {C}
  22.375,                                 !- August Ground Temperature {C}
  21.449,                                 !- September Ground Temperature {C}
  20.121,                                 !- October Ground Temperature {C}
  19.802,                                 !- November Ground Temperature {C}
  19.633;                                 !- December Ground Temperature {C}

OS:Site:WaterMainsTemperature,
  {07b3827c-fe3e-4028-b9eb-382b99656ebb}, !- Handle
  Correlation,                            !- Calculation Method
  ,                                       !- Temperature Schedule Name
  9.69,                                   !- Annual Average Outdoor Air Temperature {C}
  28.1;                                   !- Maximum Difference In Monthly Average Outdoor Air Temperatures {deltaC}

OS:SizingPeriod:DesignDay,
  {a8957a57-f65c-4d71-bcd2-c67813c255eb}, !- Handle
  Sizing Period Design Day 1,             !- Name
  -20.6,                                  !- Maximum Dry-Bulb Temperature {C}
  0,                                      !- Daily Dry-Bulb Temperature Range {deltaC}
  -20.6,                                  !- Humidity Indicating Conditions at Maximum Dry-Bulb {BasedOnField A3}
  99063,                                  !- Barometric Pressure {Pa}
  4.9,                                    !- Wind Speed {m/s}
  270,                                    !- Wind Direction {deg}
  0,                                      !- Sky Clearness
  0,                                      !- Rain Indicator
  0,                                      !- Snow Indicator
  21,                                     !- Day of Month
  1,                                      !- Month
  WinterDesignDay,                        !- Day Type
  0,                                      !- Daylight Saving Time Indicator
  WetBulb,                                !- Humidity Indicating Type
  ,                                       !- Humidity Indicating Day Schedule Name
  DefaultMultipliers,                     !- Dry-Bulb Temperature Range Modifier Type
  ,                                       !- Dry-Bulb Temperature Range Modifier Schedule Name
  AshraeClearSky;                         !- Solar Model Indicator

OS:SizingPeriod:DesignDay,
  {2ef85c63-fd5d-44e3-acd6-d0e8e360352f}, !- Handle
  Sizing Period Design Day 2,             !- Name
  33.2,                                   !- Maximum Dry-Bulb Temperature {C}
  10.7,                                   !- Daily Dry-Bulb Temperature Range {deltaC}
  23.8,                                   !- Humidity Indicating Conditions at Maximum Dry-Bulb {BasedOnField A3}
  99063,                                  !- Barometric Pressure {Pa}
  5.3,                                    !- Wind Speed {m/s}
  230,                                    !- Wind Direction {deg}
  1,                                      !- Sky Clearness
  0,                                      !- Rain Indicator
  0,                                      !- Snow Indicator
  21,                                     !- Day of Month
  7,                                      !- Month
  SummerDesignDay,                        !- Day Type
  0,                                      !- Daylight Saving Time Indicator
  WetBulb,                                !- Humidity Indicating Type
  ,                                       !- Humidity Indicating Day Schedule Name
  DefaultMultipliers,                     !- Dry-Bulb Temperature Range Modifier Type
  ,                                       !- Dry-Bulb Temperature Range Modifier Schedule Name
  AshraeClearSky;                         !- Solar Model Indicator

OS:ScheduleTypeLimits,
  {9cbdb06f-08fb-4dab-8e36-768b9744f5c6}, !- Handle
  Temperature,                            !- Name
  -60,                                    !- Lower Limit Value {BasedOnField A4}
  200,                                    !- Upper Limit Value {BasedOnField A4}
  CONTINUOUS,                             !- Numeric Type
  Temperature;                            !- Unit Type

OS:DefaultScheduleSet,
  {194bc1b5-868c-4401-889e-da08feb78e17}, !- Handle
  Default Schedules,                      !- Name
  ,                                       !- Hours of Operation Schedule Name
  {408f3da5-2e25-48c1-89a6-780c41875383}, !- Number of People Schedule Name
  {33f08aca-7bd6-45eb-a61e-d8c464159bb9}, !- People Activity Level Schedule Name
  {f017e96d-ae79-4911-aa12-5edc20573e35}, !- Lighting Schedule Name
  {065e8af5-a83d-40a8-9427-b955bf206a67}, !- Electric Equipment Schedule Name
  {b090b293-83cd-460d-9bf6-cb0a9b907810}, !- Gas Equipment Schedule Name
  {74f0798f-9907-4609-baec-8fb1a6595d6f}, !- Hot Water Equipment Schedule Name
  {6508a0d3-2cae-4b53-9fc6-2eaafdf81b01}, !- Infiltration Schedule Name
  ,                                       !- Steam Equipment Schedule Name
  ;                                       !- Other Equipment Schedule Name

OS:Schedule:Ruleset,
  {408f3da5-2e25-48c1-89a6-780c41875383}, !- Handle
  Medium Office Number of People Schedule, !- Name
  {f9854da8-23d8-4533-ad9d-f8928f39815c}, !- Schedule Type Limits Name
  {00c113c0-0622-46ba-b00b-d43a1d76fa8f}, !- Default Day Schedule Name
  {97967761-5fe9-412e-bcf8-b33f3f72218b}; !- Summer Design Day Schedule Name

OS:Schedule:Day,
  {00c113c0-0622-46ba-b00b-d43a1d76fa8f}, !- Handle
  Medium Office Number of People All Other Days Schedule, !- Name
  {f9854da8-23d8-4533-ad9d-f8928f39815c}, !- Schedule Type Limits Name
  ,                                       !- Interpolate to Timestep
  24,                                     !- Hour 1
  0,                                      !- Minute 1
  0;                                      !- Value Until Time 1

OS:Schedule:Day,
  {40a889fc-feff-4db4-9acf-7bfb39aa57e9}, !- Handle
  Medium Office Number of People Summer Design Day Schedule, !- Name
  ,                                       !- Schedule Type Limits Name
  ,                                       !- Interpolate to Timestep
  6,                                      !- Hour 1
  0,                                      !- Minute 1
  0,                                      !- Value Until Time 1
  22,                                     !- Hour 2
  0,                                      !- Minute 2
  1,                                      !- Value Until Time 2
  24,                                     !- Hour 3
  0,                                      !- Minute 3
  0.05;                                   !- Value Until Time 3

OS:Schedule:Day,
  {97967761-5fe9-412e-bcf8-b33f3f72218b}, !- Handle
  Medium Office Number of People Summer Design Day Schedule 1, !- Name
  {f9854da8-23d8-4533-ad9d-f8928f39815c}, !- Schedule Type Limits Name
  ,                                       !- Interpolate to Timestep
  6,                                      !- Hour 1
  0,                                      !- Minute 1
  0,                                      !- Value Until Time 1
  22,                                     !- Hour 2
  0,                                      !- Minute 2
  1,                                      !- Value Until Time 2
  24,                                     !- Hour 3
  0,                                      !- Minute 3
  0.05;                                   !- Value Until Time 3

OS:Schedule:Rule,
  {970e0103-6d3e-415b-a16c-99a552974bf7}, !- Handle
  Medium Office Number of People Schedule Weekdays Rule, !- Name
  {408f3da5-2e25-48c1-89a6-780c41875383}, !- Schedule Ruleset Name
  1,                                      !- Rule Order
  {d489766d-caae-4d6f-a29f-8ea57deacfc7}, !- Day Schedule Name
  ,                                       !- Apply Sunday
  Yes,                                    !- Apply Monday
  Yes,                                    !- Apply Tuesday
  Yes,                                    !- Apply Wednesday
  Yes,                                    !- Apply Thursday
  Yes;                                    !- Apply Friday

OS:Schedule:Day,
  {d489766d-caae-4d6f-a29f-8ea57deacfc7}, !- Handle
  Medium Office Number of People Weekdays Schedule, !- Name
  {f9854da8-23d8-4533-ad9d-f8928f39815c}, !- Schedule Type Limits Name
  ,                                       !- Interpolate to Timestep
  6,                                      !- Hour 1
  0,                                      !- Minute 1
  0,                                      !- Value Until Time 1
  7,                                      !- Hour 2
  0,                                      !- Minute 2
  0.1,                                    !- Value Until Time 2
  8,                                      !- Hour 3
  0,                                      !- Minute 3
  0.2,                                    !- Value Until Time 3
  12,                                     !- Hour 4
  0,                                      !- Minute 4
  0.95,                                   !- Value Until Time 4
  13,                                     !- Hour 5
  0,                                      !- Minute 5
  0.5,                                    !- Value Until Time 5
  17,                                     !- Hour 6
  0,                                      !- Minute 6
  0.95,                                   !- Value Until Time 6
  18,                                     !- Hour 7
  0,                                      !- Minute 7
  0.7,                                    !- Value Until Time 7
  20,                                     !- Hour 8
  0,                                      !- Minute 8
  0.4,                                    !- Value Until Time 8
  22,                                     !- Hour 9
  0,                                      !- Minute 9
  0.1,                                    !- Value Until Time 9
  24,                                     !- Hour 10
  0,                                      !- Minute 10
  0.05;                                   !- Value Until Time 10

OS:Schedule:Rule,
  {da74ebb6-9be7-42d7-ba37-0d878450726d}, !- Handle
  Medium Office Number of People Schedule Saturday Rule, !- Name
  {408f3da5-2e25-48c1-89a6-780c41875383}, !- Schedule Ruleset Name
  0,                                      !- Rule Order
  {22162a5e-4902-45ae-8e8e-6b423a643543}, !- Day Schedule Name
  ,                                       !- Apply Sunday
  ,                                       !- Apply Monday
  ,                                       !- Apply Tuesday
  ,                                       !- Apply Wednesday
  ,                                       !- Apply Thursday
  ,                                       !- Apply Friday
  Yes;                                    !- Apply Saturday

OS:Schedule:Day,
  {22162a5e-4902-45ae-8e8e-6b423a643543}, !- Handle
  Medium Office Number of People Saturday Schedule, !- Name
  {f9854da8-23d8-4533-ad9d-f8928f39815c}, !- Schedule Type Limits Name
  ,                                       !- Interpolate to Timestep
  6,                                      !- Hour 1
  0,                                      !- Minute 1
  0,                                      !- Value Until Time 1
  8,                                      !- Hour 2
  0,                                      !- Minute 2
  0.1,                                    !- Value Until Time 2
  14,                                     !- Hour 3
  0,                                      !- Minute 3
  0.5,                                    !- Value Until Time 3
  17,                                     !- Hour 4
  0,                                      !- Minute 4
  0.1,                                    !- Value Until Time 4
  24,                                     !- Hour 5
  0,                                      !- Minute 5
  0;                                      !- Value Until Time 5

OS:ScheduleTypeLimits,
  {f9854da8-23d8-4533-ad9d-f8928f39815c}, !- Handle
  Fractional,                             !- Name
  0,                                      !- Lower Limit Value {BasedOnField A4}
  1,                                      !- Upper Limit Value {BasedOnField A4}
  Continuous;                             !- Numeric Type

OS:Schedule:Ruleset,
  {33f08aca-7bd6-45eb-a61e-d8c464159bb9}, !- Handle
  Medium Office People Activity Level Schedule, !- Name
  {3b408200-0f4d-4016-afdb-938c20fa2fb4}, !- Schedule Type Limits Name
  {2c4a91e1-529e-482b-a380-f890099e8098}; !- Default Day Schedule Name

OS:Schedule:Day,
  {2c4a91e1-529e-482b-a380-f890099e8098}, !- Handle
  Medium Office People Activity Level All Days Schedule, !- Name
  {3b408200-0f4d-4016-afdb-938c20fa2fb4}, !- Schedule Type Limits Name
  ,                                       !- Interpolate to Timestep
  24,                                     !- Hour 1
  0,                                      !- Minute 1
  120;                                    !- Value Until Time 1

OS:ScheduleTypeLimits,
  {3b408200-0f4d-4016-afdb-938c20fa2fb4}, !- Handle
  ActivityLevel,                          !- Name
  0,                                      !- Lower Limit Value {BasedOnField A4}
  ,                                       !- Upper Limit Value {BasedOnField A4}
  Continuous,                             !- Numeric Type
  ActivityLevel;                          !- Unit Type

OS:Schedule:Ruleset,
  {f017e96d-ae79-4911-aa12-5edc20573e35}, !- Handle
  Medium Office Lighting Schedule,        !- Name
  {f9854da8-23d8-4533-ad9d-f8928f39815c}, !- Schedule Type Limits Name
  {50dd6634-4c60-4b0e-9631-0b02b56e646c}, !- Default Day Schedule Name
  {4d924a59-3313-4873-890c-90b891f8da54}, !- Summer Design Day Schedule Name
  {718faa02-ed82-4493-a1f7-61bbc3c7fb9d}; !- Winter Design Day Schedule Name

OS:Schedule:Day,
  {50dd6634-4c60-4b0e-9631-0b02b56e646c}, !- Handle
  Medium Office Lighting All Other Days Schedule, !- Name
  {f9854da8-23d8-4533-ad9d-f8928f39815c}, !- Schedule Type Limits Name
  ,                                       !- Interpolate to Timestep
  24,                                     !- Hour 1
  0,                                      !- Minute 1
  0.05;                                   !- Value Until Time 1

OS:Schedule:Day,
  {e9e5e5d7-bd55-4473-a19a-05cbce657e44}, !- Handle
  Medium Office Lighting Summer Design Day Schedule, !- Name
  ,                                       !- Schedule Type Limits Name
  ,                                       !- Interpolate to Timestep
  6,                                      !- Hour 1
  0,                                      !- Minute 1
  1,                                      !- Value Until Time 1
  24,                                     !- Hour 2
  0,                                      !- Minute 2
  0;                                      !- Value Until Time 2

OS:Schedule:Day,
  {4d924a59-3313-4873-890c-90b891f8da54}, !- Handle
  Medium Office Lighting Summer Design Day Schedule 1, !- Name
  {f9854da8-23d8-4533-ad9d-f8928f39815c}, !- Schedule Type Limits Name
  ,                                       !- Interpolate to Timestep
  6,                                      !- Hour 1
  0,                                      !- Minute 1
  1,                                      !- Value Until Time 1
  24,                                     !- Hour 2
  0,                                      !- Minute 2
  0;                                      !- Value Until Time 2

OS:Schedule:Day,
  {93c504f7-5c2c-4a95-8a1b-316441e2e3d9}, !- Handle
  Medium Office Lighting Winter Design Day Schedule, !- Name
  ,                                       !- Schedule Type Limits Name
  ,                                       !- Interpolate to Timestep
  24,                                     !- Hour 1
  0,                                      !- Minute 1
  0;                                      !- Value Until Time 1

OS:Schedule:Day,
  {718faa02-ed82-4493-a1f7-61bbc3c7fb9d}, !- Handle
  Medium Office Lighting Winter Design Day Schedule 1, !- Name
  {f9854da8-23d8-4533-ad9d-f8928f39815c}, !- Schedule Type Limits Name
  ,                                       !- Interpolate to Timestep
  24,                                     !- Hour 1
  0,                                      !- Minute 1
  0;                                      !- Value Until Time 1

OS:Schedule:Rule,
  {c074e2ef-b9ad-4a2c-a042-ae76018bafae}, !- Handle
  Medium Office Lighting Schedule Weekdays Rule, !- Name
  {f017e96d-ae79-4911-aa12-5edc20573e35}, !- Schedule Ruleset Name
  1,                                      !- Rule Order
  {e2321229-2b04-41a7-9a14-be79bd8540ab}, !- Day Schedule Name
  ,                                       !- Apply Sunday
  Yes,                                    !- Apply Monday
  Yes,                                    !- Apply Tuesday
  Yes,                                    !- Apply Wednesday
  Yes,                                    !- Apply Thursday
  Yes;                                    !- Apply Friday

OS:Schedule:Day,
  {e2321229-2b04-41a7-9a14-be79bd8540ab}, !- Handle
  Medium Office Lighting Weekdays Schedule, !- Name
  {f9854da8-23d8-4533-ad9d-f8928f39815c}, !- Schedule Type Limits Name
  ,                                       !- Interpolate to Timestep
  5,                                      !- Hour 1
  0,                                      !- Minute 1
  0.05,                                   !- Value Until Time 1
  7,                                      !- Hour 2
  0,                                      !- Minute 2
  0.1,                                    !- Value Until Time 2
  8,                                      !- Hour 3
  0,                                      !- Minute 3
  0.3,                                    !- Value Until Time 3
  17,                                     !- Hour 4
  0,                                      !- Minute 4
  0.9,                                    !- Value Until Time 4
  18,                                     !- Hour 5
  0,                                      !- Minute 5
  0.7,                                    !- Value Until Time 5
  20,                                     !- Hour 6
  0,                                      !- Minute 6
  0.5,                                    !- Value Until Time 6
  22,                                     !- Hour 7
  0,                                      !- Minute 7
  0.3,                                    !- Value Until Time 7
  23,                                     !- Hour 8
  0,                                      !- Minute 8
  0.1,                                    !- Value Until Time 8
  24,                                     !- Hour 9
  0,                                      !- Minute 9
  0.05;                                   !- Value Until Time 9

OS:Schedule:Rule,
  {b782a592-4370-4592-822d-7bce83d8e46b}, !- Handle
  Medium Office Lighting Schedule Saturday Rule, !- Name
  {f017e96d-ae79-4911-aa12-5edc20573e35}, !- Schedule Ruleset Name
  0,                                      !- Rule Order
  {015617c8-0a85-48fd-ab25-e028a285d92d}, !- Day Schedule Name
  ,                                       !- Apply Sunday
  ,                                       !- Apply Monday
  ,                                       !- Apply Tuesday
  ,                                       !- Apply Wednesday
  ,                                       !- Apply Thursday
  ,                                       !- Apply Friday
  Yes;                                    !- Apply Saturday

OS:Schedule:Day,
  {015617c8-0a85-48fd-ab25-e028a285d92d}, !- Handle
  Medium Office Lighting Saturday Schedule, !- Name
  {f9854da8-23d8-4533-ad9d-f8928f39815c}, !- Schedule Type Limits Name
  ,                                       !- Interpolate to Timestep
  6,                                      !- Hour 1
  0,                                      !- Minute 1
  0.05,                                   !- Value Until Time 1
  8,                                      !- Hour 2
  0,                                      !- Minute 2
  0.1,                                    !- Value Until Time 2
  14,                                     !- Hour 3
  0,                                      !- Minute 3
  0.5,                                    !- Value Until Time 3
  17,                                     !- Hour 4
  0,                                      !- Minute 4
  0.15,                                   !- Value Until Time 4
  24,                                     !- Hour 5
  0,                                      !- Minute 5
  0.05;                                   !- Value Until Time 5

OS:Schedule:Ruleset,
  {065e8af5-a83d-40a8-9427-b955bf206a67}, !- Handle
  Medium Office Electric Equipment Schedule, !- Name
  {f9854da8-23d8-4533-ad9d-f8928f39815c}, !- Schedule Type Limits Name
  {31833caf-9213-4b5a-82fc-2cb20bb299a9}, !- Default Day Schedule Name
  {619c1d40-e0ba-4a8c-976f-fa9e50641754}, !- Summer Design Day Schedule Name
  {8ac03cc7-3ad6-4455-9b05-3c3bd1085648}; !- Winter Design Day Schedule Name

OS:Schedule:Day,
  {31833caf-9213-4b5a-82fc-2cb20bb299a9}, !- Handle
  Medium Office Electric Equipment All Other Days Schedule, !- Name
  {f9854da8-23d8-4533-ad9d-f8928f39815c}, !- Schedule Type Limits Name
  ,                                       !- Interpolate to Timestep
  24,                                     !- Hour 1
  0,                                      !- Minute 1
  0.3;                                    !- Value Until Time 1

OS:Schedule:Day,
  {c49d7902-7061-4c05-9531-ba160d38a4cb}, !- Handle
  Medium Office Electric Equipment Summer Design Day Schedule, !- Name
  ,                                       !- Schedule Type Limits Name
  ,                                       !- Interpolate to Timestep
  6,                                      !- Hour 1
  0,                                      !- Minute 1
  1,                                      !- Value Until Time 1
  24,                                     !- Hour 2
  0,                                      !- Minute 2
  0;                                      !- Value Until Time 2

OS:Schedule:Day,
  {619c1d40-e0ba-4a8c-976f-fa9e50641754}, !- Handle
  Medium Office Electric Equipment Summer Design Day Schedule 1, !- Name
  {f9854da8-23d8-4533-ad9d-f8928f39815c}, !- Schedule Type Limits Name
  ,                                       !- Interpolate to Timestep
  6,                                      !- Hour 1
  0,                                      !- Minute 1
  1,                                      !- Value Until Time 1
  24,                                     !- Hour 2
  0,                                      !- Minute 2
  0;                                      !- Value Until Time 2

OS:Schedule:Day,
  {377211cf-1b14-4636-aca2-56f1064197e7}, !- Handle
  Medium Office Electric Equipment Winter Design Day Schedule, !- Name
  ,                                       !- Schedule Type Limits Name
  ,                                       !- Interpolate to Timestep
  24,                                     !- Hour 1
  0,                                      !- Minute 1
  0;                                      !- Value Until Time 1

OS:Schedule:Day,
  {8ac03cc7-3ad6-4455-9b05-3c3bd1085648}, !- Handle
  Medium Office Electric Equipment Winter Design Day Schedule 1, !- Name
  {f9854da8-23d8-4533-ad9d-f8928f39815c}, !- Schedule Type Limits Name
  ,                                       !- Interpolate to Timestep
  24,                                     !- Hour 1
  0,                                      !- Minute 1
  0;                                      !- Value Until Time 1

OS:Schedule:Rule,
  {cc314c65-202e-49a7-a35d-3c89876c068b}, !- Handle
  Medium Office Electric Equipment Schedule Weekdays Rule, !- Name
  {065e8af5-a83d-40a8-9427-b955bf206a67}, !- Schedule Ruleset Name
  1,                                      !- Rule Order
  {f71e8a90-1320-4139-8e52-fe35f694e0ce}, !- Day Schedule Name
  ,                                       !- Apply Sunday
  Yes,                                    !- Apply Monday
  Yes,                                    !- Apply Tuesday
  Yes,                                    !- Apply Wednesday
  Yes,                                    !- Apply Thursday
  Yes;                                    !- Apply Friday

OS:Schedule:Day,
  {f71e8a90-1320-4139-8e52-fe35f694e0ce}, !- Handle
  Medium Office Electric Equipment Weekdays Schedule, !- Name
  {f9854da8-23d8-4533-ad9d-f8928f39815c}, !- Schedule Type Limits Name
  ,                                       !- Interpolate to Timestep
  8,                                      !- Hour 1
  0,                                      !- Minute 1
  0.4,                                    !- Value Until Time 1
  12,                                     !- Hour 2
  0,                                      !- Minute 2
  0.9,                                    !- Value Until Time 2
  13,                                     !- Hour 3
  0,                                      !- Minute 3
  0.8,                                    !- Value Until Time 3
  17,                                     !- Hour 4
  0,                                      !- Minute 4
  0.9,                                    !- Value Until Time 4
  18,                                     !- Hour 5
  0,                                      !- Minute 5
  0.8,                                    !- Value Until Time 5
  20,                                     !- Hour 6
  0,                                      !- Minute 6
  0.6,                                    !- Value Until Time 6
  22,                                     !- Hour 7
  0,                                      !- Minute 7
  0.5,                                    !- Value Until Time 7
  24,                                     !- Hour 8
  0,                                      !- Minute 8
  0.4;                                    !- Value Until Time 8

OS:Schedule:Rule,
  {60417962-b21d-47fd-be77-37329bd043e0}, !- Handle
  Medium Office Electric Equipment Schedule Saturday Rule, !- Name
  {065e8af5-a83d-40a8-9427-b955bf206a67}, !- Schedule Ruleset Name
  0,                                      !- Rule Order
  {c8902d0e-89e6-4bfd-83d4-5c752b992f67}, !- Day Schedule Name
  ,                                       !- Apply Sunday
  ,                                       !- Apply Monday
  ,                                       !- Apply Tuesday
  ,                                       !- Apply Wednesday