
OS:Version,
  {7cdeec5d-b8da-41a5-b63d-e02f0e15e727}, !- Handle
  1.11.5;                                 !- Version Identifier

OS:SimulationControl,
  {f9d27fb8-d85f-4eb2-8485-eb58f66dc1f5}, !- Handle
  Yes,                                    !- Do Zone Sizing Calculation
  Yes,                                    !- Do System Sizing Calculation
  ,                                       !- Do Plant Sizing Calculation
  No,                                     !- Run Simulation for Sizing Periods
  Yes;                                    !- Run Simulation for Weather File Run Periods

OS:Timestep,
  {d431cece-931c-48b8-94c1-f9059eb83cdb}, !- Handle
  6;                                      !- Number of Timesteps per Hour

OS:RunPeriod,
  {1a0e023a-2736-4c44-8c07-22b057f95b29}, !- Handle
  Run Period 1,                           !- Name
  1,                                      !- Begin Month
  1,                                      !- Begin Day of Month
  12,                                     !- End Month
  31,                                     !- End Day of Month
  No,                                     !- Use Weather File Holidays and Special Days
  No,                                     !- Use Weather File Daylight Saving Period
  No,                                     !- Apply Weekend Holiday Rule
  Yes,                                    !- Use Weather File Rain Indicators
  Yes,                                    !- Use Weather File Snow Indicators
  1;                                      !- Number of Times Runperiod to be Repeated

OS:SurfaceConvectionAlgorithm:Inside,
  {57557770-b2f6-4c7b-8fe2-adbac376fdb2}, !- Handle
  TARP;                                   !- Algorithm

OS:SurfaceConvectionAlgorithm:Outside,
  {5989bcfa-3198-4130-bf83-fba73b01010d}, !- Handle
  DOE-2;                                  !- Algorithm

OS:HeatBalanceAlgorithm,
  {0d342916-e4c1-4593-8816-1503a18d812a}, !- Handle
  ConductionTransferFunction,             !- Algorithm
  200;                                    !- Surface Temperature Upper Limit {C}

OS:ZoneAirHeatBalanceAlgorithm,
  {72d3478c-ee9a-4f65-b01e-c727c24e0072}, !- Handle
  ThirdOrderBackwardDifference;           !- Algorithm

OS:ConvergenceLimits,
  {5b468b0e-9be2-4c00-8f59-ae48c1d5f88c}, !- Handle
  1;                                      !- Minimum System Timestep {minutes}

OS:ShadowCalculation,
  {3ed6ae30-61ab-406a-b07f-58685a4af0fb}, !- Handle
  20,                                     !- Calculation Frequency
  15000;                                  !- Maximum Figures in Shadow Overlap Calculations

OS:Site,
  {697a0ffa-3d69-40e1-a9ac-57b104f31296}, !- Handle
  Site 1,                                 !- Name
  41.77,                                  !- Latitude {deg}
  -87.75,                                 !- Longitude {deg}
  -6,                                     !- Time Zone {hr}
  190,                                    !- Elevation {m}
  ;                                       !- Terrain

OS:Site:GroundTemperature:BuildingSurface,
  {50674a2e-61bc-49cf-a0fe-46b0227e8940}, !- Handle
  19.527,                                 !- January Ground Temperature {C}
  19.502,                                 !- February Ground Temperature {C}
  19.536,                                 !- March Ground Temperature {C}
  19.598,                                 !- April Ground Temperature {C}
  20.002,                                 !- May Ground Temperature {C}
  21.64,                                  !- June Ground Temperature {C}
  22.225,                                 !- July Ground Temperature {C}
  22.375,                                 !- August Ground Temperature {C}
  21.449,                                 !- September Ground Temperature {C}
  20.121,                                 !- October Ground Temperature {C}
  19.802,                                 !- November Ground Temperature {C}
  19.633;                                 !- December Ground Temperature {C}

OS:Site:GroundTemperature:Deep,
  {3c665c93-8a27-4c2e-a8b9-de29e64b519f}, !- Handle
  19.527,                                 !- January Deep Ground Temperature {C}
  19.502,                                 !- February Deep Ground Temperature {C}
  19.536,                                 !- March Deep Ground Temperature {C}
  19.598,                                 !- April Deep Ground Temperature {C}
  20.002,                                 !- May Deep Ground Temperature {C}
  21.64,                                  !- June Deep Ground Temperature {C}
  22.225,                                 !- July Deep Ground Temperature {C}
  22.375,                                 !- August Deep Ground Temperature {C}
  21.449,                                 !- September Deep Ground Temperature {C}
  20.121,                                 !- October Deep Ground Temperature {C}
  19.802,                                 !- November Deep Ground Temperature {C}
  19.633;                                 !- December Deep Ground Temperature {C}

OS:Site:WaterMainsTemperature,
  {c3aff654-637c-4640-ac01-a867613b5aae}, !- Handle
  Correlation,                            !- Calculation Method
  ,                                       !- Temperature Schedule Name
  9.69,                                   !- Annual Average Outdoor Air Temperature {C}
  28.1;                                   !- Maximum Difference In Monthly Average Outdoor Air Temperatures {deltaC}

OS:SizingPeriod:DesignDay,
  {422f0d21-cc00-443c-b044-98c0a075fba6}, !- Handle
  Sizing Period Design Day 1,             !- Name
  -20.6,                                  !- Maximum Dry-Bulb Temperature {C}
  0,                                      !- Daily Dry-Bulb Temperature Range {deltaC}
  -20.6,                                  !- Humidity Indicating Conditions at Maximum Dry-Bulb
  99063,                                  !- Barometric Pressure {Pa}
  4.9,                                    !- Wind Speed {m/s}
  270,                                    !- Wind Direction {deg}
  0,                                      !- Sky Clearness
  0,                                      !- Rain Indicator
  0,                                      !- Snow Indicator
  21,                                     !- Day of Month
  1,                                      !- Month
  WinterDesignDay,                        !- Day Type
  0,                                      !- Daylight Saving Time Indicator
  WetBulb,                                !- Humidity Indicating Type
  ,                                       !- Humidity Indicating Day Schedule Name
  DefaultMultipliers,                     !- Dry-Bulb Temperature Range Modifier Type
  ,                                       !- Dry-Bulb Temperature Range Modifier Schedule Name
  AshraeClearSky;                         !- Solar Model Indicator

OS:SizingPeriod:DesignDay,
  {de7d7fc7-2375-4429-b52c-86ef06374457}, !- Handle
  Sizing Period Design Day 2,             !- Name
  33.2,                                   !- Maximum Dry-Bulb Temperature {C}
  10.7,                                   !- Daily Dry-Bulb Temperature Range {deltaC}
  23.8,                                   !- Humidity Indicating Conditions at Maximum Dry-Bulb
  99063,                                  !- Barometric Pressure {Pa}
  5.3,                                    !- Wind Speed {m/s}
  230,                                    !- Wind Direction {deg}
  1,                                      !- Sky Clearness
  0,                                      !- Rain Indicator
  0,                                      !- Snow Indicator
  21,                                     !- Day of Month
  7,                                      !- Month
  SummerDesignDay,                        !- Day Type
  0,                                      !- Daylight Saving Time Indicator
  WetBulb,                                !- Humidity Indicating Type
  ,                                       !- Humidity Indicating Day Schedule Name
  DefaultMultipliers,                     !- Dry-Bulb Temperature Range Modifier Type
  ,                                       !- Dry-Bulb Temperature Range Modifier Schedule Name
  AshraeClearSky;                         !- Solar Model Indicator

OS:ScheduleTypeLimits,
  {576805ef-bad8-4351-981e-2ffbf315fcd8}, !- Handle
  Temperature,                            !- Name
  -60,                                    !- Lower Limit Value
  200,                                    !- Upper Limit Value
  CONTINUOUS,                             !- Numeric Type
  Temperature;                            !- Unit Type

OS:DefaultScheduleSet,
  {3a669562-291c-4bde-b969-8e3842c34f5b}, !- Handle
  Default Schedules,                      !- Name
  ,                                       !- Hours of Operation Schedule Name
  {42f0f67e-06fb-472a-95b5-62ed822126e4}, !- Number of People Schedule Name
  {fe30edf7-d7cb-4489-aa4c-40b832a5094d}, !- People Activity Level Schedule Name
  {6c84649f-5937-4279-8445-79776f6010f7}, !- Lighting Schedule Name
  {58cadcb5-5cdb-4f9c-b3da-f4d0adf57406}, !- Electric Equipment Schedule Name
  {27a9c40b-9c3b-4186-8df3-53c98ae84ad4}, !- Gas Equipment Schedule Name
  {8641c932-6d08-4c9a-ac65-af4ee19e3e0a}, !- Hot Water Equipment Schedule Name
  {d026a6dc-01ec-40d5-b165-ba0f76e288c0}, !- Infiltration Schedule Name
  ,                                       !- Steam Equipment Schedule Name
  ;                                       !- Other Equipment Schedule Name

OS:Schedule:Ruleset,
  {42f0f67e-06fb-472a-95b5-62ed822126e4}, !- Handle
  Medium Office Number of People Schedule, !- Name
  {ce8c543f-0538-4b9d-8909-2bc3c483429d}, !- Schedule Type Limits Name
  {aaca825e-236a-45ab-b66f-0ea8a4542d63}, !- Default Day Schedule Name
  {54942279-d913-400d-9a6d-70135a23d13c}; !- Summer Design Day Schedule Name

OS:Schedule:Day,
  {aaca825e-236a-45ab-b66f-0ea8a4542d63}, !- Handle
  Medium Office Number of People All Other Days Schedule, !- Name
  {ce8c543f-0538-4b9d-8909-2bc3c483429d}, !- Schedule Type Limits Name
  ,                                       !- Interpolate to Timestep
  24,                                     !- Hour 1
  0,                                      !- Minute 1
  0;                                      !- Value Until Time 1

OS:Schedule:Day,
  {49570778-ff7c-4451-aa35-32275c7699de}, !- Handle
  Medium Office Number of People Summer Design Day Schedule, !- Name
  ,                                       !- Schedule Type Limits Name
  ,                                       !- Interpolate to Timestep
  6,                                      !- Hour 1
  0,                                      !- Minute 1
  0,                                      !- Value Until Time 1
  22,                                     !- Hour 2
  0,                                      !- Minute 2
  1,                                      !- Value Until Time 2
  24,                                     !- Hour 3
  0,                                      !- Minute 3
  0.05;                                   !- Value Until Time 3

OS:Schedule:Day,
  {54942279-d913-400d-9a6d-70135a23d13c}, !- Handle
  Medium Office Number of People Summer Design Day Schedule 1, !- Name
  {ce8c543f-0538-4b9d-8909-2bc3c483429d}, !- Schedule Type Limits Name
  ,                                       !- Interpolate to Timestep
  6,                                      !- Hour 1
  0,                                      !- Minute 1
  0,                                      !- Value Until Time 1
  22,                                     !- Hour 2
  0,                                      !- Minute 2
  1,                                      !- Value Until Time 2
  24,                                     !- Hour 3
  0,                                      !- Minute 3
  0.05;                                   !- Value Until Time 3

OS:Schedule:Rule,
  {6ed60333-1984-46f5-bdbb-262198901762}, !- Handle
  Medium Office Number of People Schedule Weekdays Rule, !- Name
  {42f0f67e-06fb-472a-95b5-62ed822126e4}, !- Schedule Ruleset Name
  1,                                      !- Rule Order
  {cd910ca1-c2f3-4f12-bc08-5ae12c444da8}, !- Day Schedule Name
  ,                                       !- Apply Sunday
  Yes,                                    !- Apply Monday
  Yes,                                    !- Apply Tuesday
  Yes,                                    !- Apply Wednesday
  Yes,                                    !- Apply Thursday
  Yes;                                    !- Apply Friday

OS:Schedule:Day,
  {cd910ca1-c2f3-4f12-bc08-5ae12c444da8}, !- Handle
  Medium Office Number of People Weekdays Schedule, !- Name
  {ce8c543f-0538-4b9d-8909-2bc3c483429d}, !- Schedule Type Limits Name
  ,                                       !- Interpolate to Timestep
  6,                                      !- Hour 1
  0,                                      !- Minute 1
  0,                                      !- Value Until Time 1
  7,                                      !- Hour 2
  0,                                      !- Minute 2
  0.1,                                    !- Value Until Time 2
  8,                                      !- Hour 3
  0,                                      !- Minute 3
  0.2,                                    !- Value Until Time 3
  12,                                     !- Hour 4
  0,                                      !- Minute 4
  0.95,                                   !- Value Until Time 4
  13,                                     !- Hour 5
  0,                                      !- Minute 5
  0.5,                                    !- Value Until Time 5
  17,                                     !- Hour 6
  0,                                      !- Minute 6
  0.95,                                   !- Value Until Time 6
  18,                                     !- Hour 7
  0,                                      !- Minute 7
  0.7,                                    !- Value Until Time 7
  20,                                     !- Hour 8
  0,                                      !- Minute 8
  0.4,                                    !- Value Until Time 8
  22,                                     !- Hour 9
  0,                                      !- Minute 9
  0.1,                                    !- Value Until Time 9
  24,                                     !- Hour 10
  0,                                      !- Minute 10
  0.05;                                   !- Value Until Time 10

OS:Schedule:Rule,
  {573148f8-d269-47f3-913a-1b2792cd7af5}, !- Handle
  Medium Office Number of People Schedule Saturday Rule, !- Name
  {42f0f67e-06fb-472a-95b5-62ed822126e4}, !- Schedule Ruleset Name
  0,                                      !- Rule Order
  {914bd110-0430-4f2a-bc2f-cd59ed18bbf5}, !- Day Schedule Name
  ,                                       !- Apply Sunday
  ,                                       !- Apply Monday
  ,                                       !- Apply Tuesday
  ,                                       !- Apply Wednesday
  ,                                       !- Apply Thursday
  ,                                       !- Apply Friday
  Yes;                                    !- Apply Saturday

OS:Schedule:Day,
  {914bd110-0430-4f2a-bc2f-cd59ed18bbf5}, !- Handle
  Medium Office Number of People Saturday Schedule, !- Name
  {ce8c543f-0538-4b9d-8909-2bc3c483429d}, !- Schedule Type Limits Name
  ,                                       !- Interpolate to Timestep
  6,                                      !- Hour 1
  0,                                      !- Minute 1
  0,                                      !- Value Until Time 1
  8,                                      !- Hour 2
  0,                                      !- Minute 2
  0.1,                                    !- Value Until Time 2
  14,                                     !- Hour 3
  0,                                      !- Minute 3
  0.5,                                    !- Value Until Time 3
  17,                                     !- Hour 4
  0,                                      !- Minute 4
  0.1,                                    !- Value Until Time 4
  24,                                     !- Hour 5
  0,                                      !- Minute 5
  0;                                      !- Value Until Time 5

OS:ScheduleTypeLimits,
  {ce8c543f-0538-4b9d-8909-2bc3c483429d}, !- Handle
  Fractional,                             !- Name
  0,                                      !- Lower Limit Value
  1,                                      !- Upper Limit Value
  Continuous;                             !- Numeric Type

OS:Schedule:Ruleset,
  {fe30edf7-d7cb-4489-aa4c-40b832a5094d}, !- Handle
  Medium Office People Activity Level Schedule, !- Name
  {b00a50e5-0c5f-4b3d-b701-730100f58f11}, !- Schedule Type Limits Name
  {8db2fc3d-a00a-4344-9cc0-addf86608494}; !- Default Day Schedule Name

OS:Schedule:Day,
  {8db2fc3d-a00a-4344-9cc0-addf86608494}, !- Handle
  Medium Office People Activity Level All Days Schedule, !- Name
  {b00a50e5-0c5f-4b3d-b701-730100f58f11}, !- Schedule Type Limits Name
  ,                                       !- Interpolate to Timestep
  24,                                     !- Hour 1
  0,                                      !- Minute 1
  120;                                    !- Value Until Time 1

OS:ScheduleTypeLimits,
  {b00a50e5-0c5f-4b3d-b701-730100f58f11}, !- Handle
  ActivityLevel,                          !- Name
  0,                                      !- Lower Limit Value
  ,                                       !- Upper Limit Value
  Continuous,                             !- Numeric Type
  ActivityLevel;                          !- Unit Type

OS:Schedule:Ruleset,
  {6c84649f-5937-4279-8445-79776f6010f7}, !- Handle
  Medium Office Lighting Schedule,        !- Name
  {ce8c543f-0538-4b9d-8909-2bc3c483429d}, !- Schedule Type Limits Name
  {bafad0ad-40ba-4f7f-9dd9-ad0f61230bca}, !- Default Day Schedule Name
  {14650f26-e2a3-4cee-a818-b6e1c00a88f6}, !- Summer Design Day Schedule Name
  {bf53ab4b-ae5c-49eb-bee6-3cdfac8f3562}; !- Winter Design Day Schedule Name

OS:Schedule:Day,
  {bafad0ad-40ba-4f7f-9dd9-ad0f61230bca}, !- Handle
  Medium Office Lighting All Other Days Schedule, !- Name
  {ce8c543f-0538-4b9d-8909-2bc3c483429d}, !- Schedule Type Limits Name
  ,                                       !- Interpolate to Timestep
  24,                                     !- Hour 1
  0,                                      !- Minute 1
  0.05;                                   !- Value Until Time 1

OS:Schedule:Day,
  {7c99eba1-db34-46ca-8158-4dec3b271429}, !- Handle
  Medium Office Lighting Summer Design Day Schedule, !- Name
  ,                                       !- Schedule Type Limits Name
  ,                                       !- Interpolate to Timestep
  6,                                      !- Hour 1
  0,                                      !- Minute 1
  1,                                      !- Value Until Time 1
  24,                                     !- Hour 2
  0,                                      !- Minute 2
  0;                                      !- Value Until Time 2

OS:Schedule:Day,
  {14650f26-e2a3-4cee-a818-b6e1c00a88f6}, !- Handle
  Medium Office Lighting Summer Design Day Schedule 1, !- Name
  {ce8c543f-0538-4b9d-8909-2bc3c483429d}, !- Schedule Type Limits Name
  ,                                       !- Interpolate to Timestep
  6,                                      !- Hour 1
  0,                                      !- Minute 1
  1,                                      !- Value Until Time 1
  24,                                     !- Hour 2
  0,                                      !- Minute 2
  0;                                      !- Value Until Time 2

OS:Schedule:Day,
  {db354779-a215-43d0-8242-14f926c1f384}, !- Handle
  Medium Office Lighting Winter Design Day Schedule, !- Name
  ,                                       !- Schedule Type Limits Name
  ,                                       !- Interpolate to Timestep
  24,                                     !- Hour 1
  0,                                      !- Minute 1
  0;                                      !- Value Until Time 1

OS:Schedule:Day,
  {bf53ab4b-ae5c-49eb-bee6-3cdfac8f3562}, !- Handle
  Medium Office Lighting Winter Design Day Schedule 1, !- Name
  {ce8c543f-0538-4b9d-8909-2bc3c483429d}, !- Schedule Type Limits Name
  ,                                       !- Interpolate to Timestep
  24,                                     !- Hour 1
  0,                                      !- Minute 1
  0;                                      !- Value Until Time 1

OS:Schedule:Rule,
  {f54f1983-cd57-4728-8e79-20a0bd169949}, !- Handle
  Medium Office Lighting Schedule Weekdays Rule, !- Name
  {6c84649f-5937-4279-8445-79776f6010f7}, !- Schedule Ruleset Name
  1,                                      !- Rule Order
  {605eb982-e83a-47bc-98d7-3d24218d99b7}, !- Day Schedule Name
  ,                                       !- Apply Sunday
  Yes,                                    !- Apply Monday
  Yes,                                    !- Apply Tuesday
  Yes,                                    !- Apply Wednesday
  Yes,                                    !- Apply Thursday
  Yes;                                    !- Apply Friday

OS:Schedule:Day,
  {605eb982-e83a-47bc-98d7-3d24218d99b7}, !- Handle
  Medium Office Lighting Weekdays Schedule, !- Name
  {ce8c543f-0538-4b9d-8909-2bc3c483429d}, !- Schedule Type Limits Name
  ,                                       !- Interpolate to Timestep
  5,                                      !- Hour 1
  0,                                      !- Minute 1
  0.05,                                   !- Value Until Time 1
  7,                                      !- Hour 2
  0,                                      !- Minute 2
  0.1,                                    !- Value Until Time 2
  8,                                      !- Hour 3
  0,                                      !- Minute 3
  0.3,                                    !- Value Until Time 3
  17,                                     !- Hour 4
  0,                                      !- Minute 4
  0.9,                                    !- Value Until Time 4
  18,                                     !- Hour 5
  0,                                      !- Minute 5
  0.7,                                    !- Value Until Time 5
  20,                                     !- Hour 6
  0,                                      !- Minute 6
  0.5,                                    !- Value Until Time 6
  22,                                     !- Hour 7
  0,                                      !- Minute 7
  0.3,                                    !- Value Until Time 7
  23,                                     !- Hour 8
  0,                                      !- Minute 8
  0.1,                                    !- Value Until Time 8
  24,                                     !- Hour 9
  0,                                      !- Minute 9
  0.05;                                   !- Value Until Time 9

OS:Schedule:Rule,
  {359e3eaa-fd26-4955-9586-9b0c37e242e7}, !- Handle
  Medium Office Lighting Schedule Saturday Rule, !- Name
  {6c84649f-5937-4279-8445-79776f6010f7}, !- Schedule Ruleset Name
  0,                                      !- Rule Order
  {9a184572-aec0-43fe-931e-02d25da8073d}, !- Day Schedule Name
  ,                                       !- Apply Sunday
  ,                                       !- Apply Monday
  ,                                       !- Apply Tuesday
  ,                                       !- Apply Wednesday
  ,                                       !- Apply Thursday
  ,                                       !- Apply Friday
  Yes;                                    !- Apply Saturday

OS:Schedule:Day,
  {9a184572-aec0-43fe-931e-02d25da8073d}, !- Handle
  Medium Office Lighting Saturday Schedule, !- Name
  {ce8c543f-0538-4b9d-8909-2bc3c483429d}, !- Schedule Type Limits Name
  ,                                       !- Interpolate to Timestep
  6,                                      !- Hour 1
  0,                                      !- Minute 1
  0.05,                                   !- Value Until Time 1
  8,                                      !- Hour 2
  0,                                      !- Minute 2
  0.1,                                    !- Value Until Time 2
  14,                                     !- Hour 3
  0,                                      !- Minute 3
  0.5,                                    !- Value Until Time 3
  17,                                     !- Hour 4
  0,                                      !- Minute 4
  0.15,                                   !- Value Until Time 4
  24,                                     !- Hour 5
  0,                                      !- Minute 5
  0.05;                                   !- Value Until Time 5

OS:Schedule:Ruleset,
  {58cadcb5-5cdb-4f9c-b3da-f4d0adf57406}, !- Handle
  Medium Office Electric Equipment Schedule, !- Name
  {ce8c543f-0538-4b9d-8909-2bc3c483429d}, !- Schedule Type Limits Name
  {689ece8b-1337-4280-ad7d-164a0995838b}, !- Default Day Schedule Name
  {3d6d95c9-bad5-4fd3-9427-dbf867f2caee}, !- Summer Design Day Schedule Name
  {989a23ff-d98f-459b-a761-26ac6a4776e2}; !- Winter Design Day Schedule Name

OS:Schedule:Day,
  {689ece8b-1337-4280-ad7d-164a0995838b}, !- Handle
  Medium Office Electric Equipment All Other Days Schedule, !- Name
  {ce8c543f-0538-4b9d-8909-2bc3c483429d}, !- Schedule Type Limits Name
  ,                                       !- Interpolate to Timestep
  24,                                     !- Hour 1
  0,                                      !- Minute 1
  0.3;                                    !- Value Until Time 1

OS:Schedule:Day,
  {18a60de1-2d52-4a3e-926c-cdcb52e7a6f6}, !- Handle
  Medium Office Electric Equipment Summer Design Day Schedule, !- Name
  ,                                       !- Schedule Type Limits Name
  ,                                       !- Interpolate to Timestep
  6,                                      !- Hour 1
  0,                                      !- Minute 1
  1,                                      !- Value Until Time 1
  24,                                     !- Hour 2
  0,                                      !- Minute 2
  0;                                      !- Value Until Time 2

OS:Schedule:Day,
  {3d6d95c9-bad5-4fd3-9427-dbf867f2caee}, !- Handle
  Medium Office Electric Equipment Summer Design Day Schedule 1, !- Name
  {ce8c543f-0538-4b9d-8909-2bc3c483429d}, !- Schedule Type Limits Name
  ,                                       !- Interpolate to Timestep
  6,                                      !- Hour 1
  0,                                      !- Minute 1
  1,                                      !- Value Until Time 1
  24,                                     !- Hour 2
  0,                                      !- Minute 2
  0;                                      !- Value Until Time 2

OS:Schedule:Day,
  {c1ad64e5-2fbf-4ef0-8aeb-3fe1c8f49afd}, !- Handle
  Medium Office Electric Equipment Winter Design Day Schedule, !- Name
  ,                                       !- Schedule Type Limits Name
  ,                                       !- Interpolate to Timestep
  24,                                     !- Hour 1
  0,                                      !- Minute 1
  0;                                      !- Value Until Time 1

OS:Schedule:Day,
  {989a23ff-d98f-459b-a761-26ac6a4776e2}, !- Handle
  Medium Office Electric Equipment Winter Design Day Schedule 1, !- Name
  {ce8c543f-0538-4b9d-8909-2bc3c483429d}, !- Schedule Type Limits Name
  ,                                       !- Interpolate to Timestep
  24,                                     !- Hour 1
  0,                                      !- Minute 1
  0;                                      !- Value Until Time 1

OS:Schedule:Rule,
  {c9e37078-615f-4737-abdb-d15b42b7def6}, !- Handle
  Medium Office Electric Equipment Schedule Weekdays Rule, !- Name
  {58cadcb5-5cdb-4f9c-b3da-f4d0adf57406}, !- Schedule Ruleset Name
  1,                                      !- Rule Order
  {0ded7ac2-323e-4e85-ab53-426079216288}, !- Day Schedule Name
  ,                                       !- Apply Sunday
  Yes,                                    !- Apply Monday
  Yes,                                    !- Apply Tuesday
  Yes,                                    !- Apply Wednesday
  Yes,                                    !- Apply Thursday
  Yes;                                    !- Apply Friday

OS:Schedule:Day,
  {0ded7ac2-323e-4e85-ab53-426079216288}, !- Handle
  Medium Office Electric Equipment Weekdays Schedule, !- Name
  {ce8c543f-0538-4b9d-8909-2bc3c483429d}, !- Schedule Type Limits Name
  ,                                       !- Interpolate to Timestep
  8,                                      !- Hour 1
  0,                                      !- Minute 1
  0.4,                                    !- Value Until Time 1
  12,                                     !- Hour 2
  0,                                      !- Minute 2
  0.9,                                    !- Value Until Time 2
  13,                                     !- Hour 3
  0,                                      !- Minute 3
  0.8,                                    !- Value Until Time 3
  17,                                     !- Hour 4
  0,                                      !- Minute 4
  0.9,                                    !- Value Until Time 4
  18,                                     !- Hour 5
  0,                                      !- Minute 5
  0.8,                                    !- Value Until Time 5
  20,                                     !- Hour 6