
OS:Version,
  {524c4f28-6564-4db8-aa7c-23bc87e914b2}, !- Handle
  1.11.5;                                 !- Version Identifier

OS:Construction,
  {bad453dc-3482-4fb5-9bcf-979f415eb6af}, !- Handle
  Interior Door,                          !- Name
  ,                                       !- Surface Rendering Name
  {8dcfedc1-2156-48e7-aa6d-d3b90e1ca96b}; !- Layer 1

OS:Material,
  {8dcfedc1-2156-48e7-aa6d-d3b90e1ca96b}, !- Handle
  G05 25mm wood,                          !- Name
  MediumSmooth,                           !- Roughness
  0.0254,                                 !- Thickness {m}
  0.15,                                   !- Conductivity {W/m-K}
  608,                                    !- Density {kg/m3}
  1630;                                   !- Specific Heat {J/kg-K}

OS:ComponentData,
  {7af63bfd-ef17-4c70-bf22-5df17d043bfc}, !- Handle
  Component Data 1,                       !- Name
  {475ef024-7834-41ef-8941-45c0b16e3212}, !- UUID
  {bd5f8f0f-3904-4984-b41c-232d2f185a7e}, !- Version UUID
  1465571674,                             !- Creation Timestamp
  1465571674,                             !- Version Timestamp
  {bad453dc-3482-4fb5-9bcf-979f415eb6af}, !- Name of Object 1
  {8dcfedc1-2156-48e7-aa6d-d3b90e1ca96b}; !- Name of Object 2

