
OS:Version,
  {b54882f7-b163-4983-9ea6-9f1ae820321d}, !- Handle
  3.0.0;                                  !- Version Identifier

OS:Coil:Cooling:DX:SingleSpeed,
  {6bc08ea9-503f-4add-9d9c-d783cb6dffd7}, !- Handle
  Coil Cooling DX Single Speed 1,         !- Name
  {d689dc77-9b21-4713-a495-2e5a315b6f94}, !- Availability Schedule Name
  autosize,                               !- Rated Total Cooling Capacity {W}
  autosize,                               !- Rated Sensible Heat Ratio
  3,                                      !- Rated COP {W/W}
  autosize,                               !- Rated Air Flow Rate {m3/s}
  773.3,                                  !- Rated Evaporator Fan Power Per Volume Flow Rate {W/(m3/s)}
  ,                                       !- Air Inlet Node Name
  ,                                       !- Air Outlet Node Name
  {57ac54ab-337e-4f99-921b-761cf0f5af12}, !- Total Cooling Capacity Function of Temperature Curve Name
  {b0fd7654-d159-45ad-9b4f-f70d3055bfe6}, !- Total Cooling Capacity Function of Flow Fraction Curve Name
  {fa3636c1-4625-442b-ae0a-4c873a570811}, !- Energy Input Ratio Function of Temperature Curve Name
  {e31d64ed-8fb7-4039-8725-7efff979d4c3}, !- Energy Input Ratio Function of Flow Fraction Curve Name
  {4c5c97c4-7b29-47a7-82ff-9e70dff408df}, !- Part Load Fraction Correlation Curve Name
  1000,                                   !- Nominal Time for Condensate Removal to Begin {s}
  ,                                       !- Ratio of Initial Moisture Evaporation Rate and Steady State Latent Capacity {dimensionless}
  ,                                       !- Maximum Cycling Rate {cycles/hr}
  ,                                       !- Latent Capacity Time Constant {s}
  ,                                       !- Condenser Air Inlet Node Name
  AirCooled,                              !- Condenser Type
  0,                                      !- Evaporative Condenser Effectiveness {dimensionless}
  Autosize,                               !- Evaporative Condenser Air Flow Rate {m3/s}
  Autosize,                               !- Evaporative Condenser Pump Rated Power Consumption {W}
  0,                                      !- Crankcase Heater Capacity {W}
  0,                                      !- Maximum Outdoor Dry-Bulb Temperature for Crankcase Heater Operation {C}
  ,                                       !- Supply Water Storage Tank Name
  ,                                       !- Condensate Collection Water Storage Tank Name
  0,                                      !- Basin Heater Capacity {W/K}
  10,                                     !- Basin Heater Setpoint Temperature {C}
  {46b001cb-8e6c-4b83-bf49-62beefcdcbdf}; !- Basin Heater Operating Schedule Name

OS:Curve:Biquadratic,
  {57ac54ab-337e-4f99-921b-761cf0f5af12}, !- Handle
  Curve Biquadratic 1,                    !- Name
  0.942587793,                            !- Coefficient1 Constant
  0.009543347,                            !- Coefficient2 x
  0.00068377,                             !- Coefficient3 x**2
  -0.011042676,                           !- Coefficient4 y
  5.249e-06,                              !- Coefficient5 y**2
  -9.72e-06,                              !- Coefficient6 x*y
  17,                                     !- Minimum Value of x
  22,                                     !- Maximum Value of x
  13,                                     !- Minimum Value of y
  46;                                     !- Maximum Value of y

OS:Curve:Quadratic,
  {b0fd7654-d159-45ad-9b4f-f70d3055bfe6}, !- Handle
  Curve Quadratic 1,                      !- Name
  0.8,                                    !- Coefficient1 Constant
  0.2,                                    !- Coefficient2 x
  0,                                      !- Coefficient3 x**2
  0.5,                                    !- Minimum Value of x
  1.5;                                    !- Maximum Value of x

OS:Curve:Biquadratic,
  {fa3636c1-4625-442b-ae0a-4c873a570811}, !- Handle
  Curve Biquadratic 2,                    !- Name
  0.342414409,                            !- Coefficient1 Constant
  0.034885008,                            !- Coefficient2 x
  -0.0006237,                             !- Coefficient3 x**2
  0.004977216,                            !- Coefficient4 y
  0.000437951,                            !- Coefficient5 y**2
  -0.000728028,                           !- Coefficient6 x*y
  17,                                     !- Minimum Value of x
  22,                                     !- Maximum Value of x
  13,                                     !- Minimum Value of y
  46;                                     !- Maximum Value of y

OS:Curve:Quadratic,
  {e31d64ed-8fb7-4039-8725-7efff979d4c3}, !- Handle
  Curve Quadratic 2,                      !- Name
  1.1552,                                 !- Coefficient1 Constant
  -0.1808,                                !- Coefficient2 x
  0.0256,                                 !- Coefficient3 x**2
  0.5,                                    !- Minimum Value of x
  1.5;                                    !- Maximum Value of x

OS:Curve:Quadratic,
  {4c5c97c4-7b29-47a7-82ff-9e70dff408df}, !- Handle
  CC DX SingleSpeed PartLoadFrac Correlation Curve, !- Name
  0.85,                                   !- Coefficient1 Constant
  0.15,                                   !- Coefficient2 x
  0,                                      !- Coefficient3 x**2
  0,                                      !- Minimum Value of x
  1;                                      !- Maximum Value of x

OS:Schedule:Constant,
  {d689dc77-9b21-4713-a495-2e5a315b6f94}, !- Handle
  Always On Discrete,                     !- Name
  {a28f3483-6df4-41a1-8ed7-4c943bc7e383}, !- Schedule Type Limits Name
  1;                                      !- Value

OS:ScheduleTypeLimits,
  {a28f3483-6df4-41a1-8ed7-4c943bc7e383}, !- Handle
  OnOff,                                  !- Name
  0,                                      !- Lower Limit Value
  1,                                      !- Upper Limit Value
  Discrete,                               !- Numeric Type
  Availability;                           !- Unit Type

OS:Schedule:Constant,
  {46b001cb-8e6c-4b83-bf49-62beefcdcbdf}, !- Handle
  Always Off Discrete,                    !- Name
  {ad0f95a2-88c3-40be-98f6-4c2a9293d56d}, !- Schedule Type Limits Name
  0;                                      !- Value

OS:ScheduleTypeLimits,
  {ad0f95a2-88c3-40be-98f6-4c2a9293d56d}, !- Handle
  OnOff 1,                                !- Name
  0,                                      !- Lower Limit Value
  1,                                      !- Upper Limit Value
  Discrete,                               !- Numeric Type
  Availability;                           !- Unit Type

