
OS:Version,
  {c5ac07a8-42cf-429a-843a-929ee627178c}, !- Handle
  3.0.0;                                  !- Version Identifier

OS:Coil:Cooling:DX:SingleSpeed,
  {7c1a6122-edc7-4857-84e5-48e84afe75f9}, !- Handle
  Coil Cooling DX Single Speed 1,         !- Name
  {fb187ccd-0d9f-40db-a6a1-83572252fbff}, !- Availability Schedule Name
  autosize,                               !- Rated Total Cooling Capacity {W}
  autosize,                               !- Rated Sensible Heat Ratio
  3,                                      !- Rated COP {W/W}
  autosize,                               !- Rated Air Flow Rate {m3/s}
  773.3,                                  !- Rated Evaporator Fan Power Per Volume Flow Rate {W/(m3/s)}
  ,                                       !- Air Inlet Node Name
  ,                                       !- Air Outlet Node Name
  {87b4540c-bb70-44bf-b023-d02db26b8e4f}, !- Total Cooling Capacity Function of Temperature Curve Name
  {6d17326e-bfb3-444b-a044-5312ca2db676}, !- Total Cooling Capacity Function of Flow Fraction Curve Name
  {104f818f-2e56-4195-a336-4598506f66b6}, !- Energy Input Ratio Function of Temperature Curve Name
  {e09933fb-5432-4270-a415-1b4231a4076a}, !- Energy Input Ratio Function of Flow Fraction Curve Name
  {355e6f97-d898-4ba2-be0b-b3f74496ae17}, !- Part Load Fraction Correlation Curve Name
  1000,                                   !- Nominal Time for Condensate Removal to Begin {s}
  ,                                       !- Ratio of Initial Moisture Evaporation Rate and Steady State Latent Capacity {dimensionless}
  ,                                       !- Maximum Cycling Rate {cycles/hr}
  ,                                       !- Latent Capacity Time Constant {s}
  ,                                       !- Condenser Air Inlet Node Name
  AirCooled,                              !- Condenser Type
  0,                                      !- Evaporative Condenser Effectiveness {dimensionless}
  Autosize,                               !- Evaporative Condenser Air Flow Rate {m3/s}
  Autosize,                               !- Evaporative Condenser Pump Rated Power Consumption {W}
  0,                                      !- Crankcase Heater Capacity {W}
  0,                                      !- Maximum Outdoor Dry-Bulb Temperature for Crankcase Heater Operation {C}
  ,                                       !- Supply Water Storage Tank Name
  ,                                       !- Condensate Collection Water Storage Tank Name
  0,                                      !- Basin Heater Capacity {W/K}
  10,                                     !- Basin Heater Setpoint Temperature {C}
  {37fe27fa-8f37-4406-abad-4e0b791f4f58}; !- Basin Heater Operating Schedule Name

OS:Curve:Biquadratic,
  {87b4540c-bb70-44bf-b023-d02db26b8e4f}, !- Handle
  Curve Biquadratic 1,                    !- Name
  0.942587793,                            !- Coefficient1 Constant
  0.009543347,                            !- Coefficient2 x
  0.00068377,                             !- Coefficient3 x**2
  -0.011042676,                           !- Coefficient4 y
  5.249e-06,                              !- Coefficient5 y**2
  -9.72e-06,                              !- Coefficient6 x*y
  17,                                     !- Minimum Value of x
  22,                                     !- Maximum Value of x
  13,                                     !- Minimum Value of y
  46;                                     !- Maximum Value of y

OS:Curve:Quadratic,
  {6d17326e-bfb3-444b-a044-5312ca2db676}, !- Handle
  Curve Quadratic 1,                      !- Name
  0.8,                                    !- Coefficient1 Constant
  0.2,                                    !- Coefficient2 x
  0,                                      !- Coefficient3 x**2
  0.5,                                    !- Minimum Value of x
  1.5;                                    !- Maximum Value of x

OS:Curve:Biquadratic,
  {104f818f-2e56-4195-a336-4598506f66b6}, !- Handle
  Curve Biquadratic 2,                    !- Name
  0.342414409,                            !- Coefficient1 Constant
  0.034885008,                            !- Coefficient2 x
  -0.0006237,                             !- Coefficient3 x**2
  0.004977216,                            !- Coefficient4 y
  0.000437951,                            !- Coefficient5 y**2
  -0.000728028,                           !- Coefficient6 x*y
  17,                                     !- Minimum Value of x
  22,                                     !- Maximum Value of x
  13,                                     !- Minimum Value of y
  46;                                     !- Maximum Value of y

OS:Curve:Quadratic,
  {e09933fb-5432-4270-a415-1b4231a4076a}, !- Handle
  Curve Quadratic 2,                      !- Name
  1.1552,                                 !- Coefficient1 Constant
  -0.1808,                                !- Coefficient2 x
  0.0256,                                 !- Coefficient3 x**2
  0.5,                                    !- Minimum Value of x
  1.5;                                    !- Maximum Value of x

OS:Curve:Quadratic,
  {355e6f97-d898-4ba2-be0b-b3f74496ae17}, !- Handle
  CC DX SingleSpeed PartLoadFrac Correlation Curve, !- Name
  0.85,                                   !- Coefficient1 Constant
  0.15,                                   !- Coefficient2 x
  0,                                      !- Coefficient3 x**2
  0,                                      !- Minimum Value of x
  1;                                      !- Maximum Value of x

OS:Schedule:Constant,
  {fb187ccd-0d9f-40db-a6a1-83572252fbff}, !- Handle
  Always On Discrete,                     !- Name
  {de03eaf9-b012-4919-8c7f-77a56061cfdf}, !- Schedule Type Limits Name
  1;                                      !- Value

OS:ScheduleTypeLimits,
  {de03eaf9-b012-4919-8c7f-77a56061cfdf}, !- Handle
  OnOff,                                  !- Name
  0,                                      !- Lower Limit Value
  1,                                      !- Upper Limit Value
  Discrete,                               !- Numeric Type
  Availability;                           !- Unit Type

OS:Schedule:Constant,
  {37fe27fa-8f37-4406-abad-4e0b791f4f58}, !- Handle
  Always Off Discrete,                    !- Name
  {fe613e3d-930d-4c61-8055-080ce611b7a5}, !- Schedule Type Limits Name
  0;                                      !- Value

OS:ScheduleTypeLimits,
  {fe613e3d-930d-4c61-8055-080ce611b7a5}, !- Handle
  OnOff 1,                                !- Name
  0,                                      !- Lower Limit Value
  1,                                      !- Upper Limit Value
  Discrete,                               !- Numeric Type
  Availability;                           !- Unit Type

