
OS:Version,
  {bc4e01af-10a3-4543-9b9e-540186627395}, ! Handle
  0.9.5;                                  ! Version Identifier

OS:SimulationControl,
  {7c046160-8aa1-42c7-a925-29dbf425fb20}, ! Handle
  Yes,                                    ! Do Zone Sizing Calculation
  Yes,                                    ! Do System Sizing Calculation
  ,                                       ! Do Plant Sizing Calculation
  No,                                     ! Run Simulation for Sizing Periods
  Yes;                                    ! Run Simulation for Weather File Run Periods

OS:Timestep,
  {4f41ea99-90f3-436c-806a-af629fdf1243}, ! Handle
  6;                                      ! Number of Timesteps per Hour

OS:RunPeriod,
  {d69fd306-b2d2-4266-90b4-1502d9fa578f}, ! Handle
  Run Period 1,                           ! Name
  1,                                      ! Begin Month
  1,                                      ! Begin Day of Month
  12,                                     ! End Month
  31,                                     ! End Day of Month
  No,                                     ! Use Weather File Holidays and Special Days
  No,                                     ! Use Weather File Daylight Saving Period
  No,                                     ! Apply Weekend Holiday Rule
  Yes,                                    ! Use Weather File Rain Indicators
  Yes,                                    ! Use Weather File Snow Indicators
  1;                                      ! Number of Times Runperiod to be Repeated

OS:SurfaceConvectionAlgorithm:Inside,
  {8df5b913-ff7f-468c-8119-fd505de06726}, ! Handle
  TARP;                                   ! Algorithm

OS:SurfaceConvectionAlgorithm:Outside,
  {df51b730-943f-4145-8a5a-88759afbd784}, ! Handle
  DOE-2;                                  ! Algorithm

OS:HeatBalanceAlgorithm,
  {276569f9-7f12-40a0-ad44-0beb2ec5d573}, ! Handle
  ConductionTransferFunction,             ! Algorithm
  200;                                    ! Surface Temperature Upper Limit {F}

OS:ZoneAirHeatBalanceAlgorithm,
  {84751889-5fd8-42ea-a40f-503ea194f203}, ! Handle
  AnalyticalSolution;                     ! Algorithm

OS:ConvergenceLimits,
  {ff8de62d-67d8-4156-8313-f38b7699d166}; ! Handle

OS:ShadowCalculation,
  {5379ac87-a1e0-4cd9-bec5-12e2243012ac}, ! Handle
  7,                                      ! Calculation Frequency
  15000;                                  ! Maximum Figures in Shadow Overlap Calculations

OS:Site,
  {82f58721-849a-48be-9af8-8c45920ac84c}, ! Handle
  Site 1,                                 ! Name
  41.77,                                  ! Latitude {deg}
  -87.75,                                 ! Longitude {deg}
  -6,                                     ! Time Zone {hr}
  190,                                    ! Elevation {m}
  ;                                       ! Terrain

OS:Site:GroundTemperature:BuildingSurface,
  {5db3282b-8fd6-45ef-8cca-b392afeed785}, ! Handle
  19.527,                                 ! January Ground Temperature {C}
  19.502,                                 ! February Ground Temperature {C}
  19.536,                                 ! March Ground Temperature {C}
  19.598,                                 ! April Ground Temperature {C}
  20.002,                                 ! May Ground Temperature {C}
  21.64,                                  ! June Ground Temperature {C}
  22.225,                                 ! July Ground Temperature {C}
  22.375,                                 ! August Ground Temperature {C}
  21.449,                                 ! September Ground Temperature {C}
  20.121,                                 ! October Ground Temperature {C}
  19.802,                                 ! November Ground Temperature {C}
  19.633;                                 ! December Ground Temperature {C}

OS:Site:WaterMainsTemperature,
  {a700816f-f870-47aa-b2fb-35a8626580ac}, ! Handle
  Correlation,                            ! Calculation Method
  ,                                       ! Temperature Schedule Name
  9.69,                                   ! Annual Average Outdoor Air Temperature {C}
  28.1;                                   ! Maximum Difference In Monthly Average Outdoor Air Temperatures {deltaC}

OS:SizingPeriod:DesignDay,
  {f9691609-bdcf-4b0b-976f-ee141ca74b43}, ! Handle
  Sizing Period Design Day 1,             ! Name
  -20.6,                                  ! Maximum Dry-Bulb Temperature {C}
  0,                                      ! Daily Dry-Bulb Temperature Range {deltaC}
  -20.6,                                  ! Humidity Indicating Conditions at Maximum Dry-Bulb {BasedOnField A3}
  99063,                                  ! Barometric Pressure {Pa}
  4.9,                                    ! Wind Speed {m/s}
  270,                                    ! Wind Direction {deg}
  0,                                      ! Sky Clearness
  0,                                      ! Rain Indicator
  0,                                      ! Snow Indicator
  21,                                     ! Day of Month
  1,                                      ! Month
  WinterDesignDay,                        ! Day Type
  0,                                      ! Daylight Saving Time Indicator
  WetBulb,                                ! Humidity Indicating Type
  ,                                       ! Humidity Indicating Day Schedule Name
  DefaultMultipliers,                     ! Dry-Bulb Temperature Range Modifier Type
  ,                                       ! Dry-Bulb Temperature Range Modifier Schedule Name
  AshraeClearSky;                         ! Solar Model Indicator

OS:SizingPeriod:DesignDay,
  {9314e65d-2869-4eb1-93ce-aaea501d7ca6}, ! Handle
  Sizing Period Design Day 2,             ! Name
  33.2,                                   ! Maximum Dry-Bulb Temperature {C}
  10.7,                                   ! Daily Dry-Bulb Temperature Range {deltaC}
  23.8,                                   ! Humidity Indicating Conditions at Maximum Dry-Bulb {BasedOnField A3}
  99063,                                  ! Barometric Pressure {Pa}
  5.3,                                    ! Wind Speed {m/s}
  230,                                    ! Wind Direction {deg}
  1,                                      ! Sky Clearness
  0,                                      ! Rain Indicator
  0,                                      ! Snow Indicator
  21,                                     ! Day of Month
  7,                                      ! Month
  SummerDesignDay,                        ! Day Type
  0,                                      ! Daylight Saving Time Indicator
  WetBulb,                                ! Humidity Indicating Type
  ,                                       ! Humidity Indicating Day Schedule Name
  DefaultMultipliers,                     ! Dry-Bulb Temperature Range Modifier Type
  ,                                       ! Dry-Bulb Temperature Range Modifier Schedule Name
  AshraeClearSky;                         ! Solar Model Indicator

OS:ScheduleTypeLimits,
  {9836da1e-1c67-41f4-8907-96a7ae925522}, ! Handle
  Temperature,                            ! Name
  -60,                                    ! Lower Limit Value {BasedOnField A4}
  200,                                    ! Upper Limit Value {BasedOnField A4}
  CONTINUOUS,                             ! Numeric Type
  Temperature;                            ! Unit Type

OS:DefaultScheduleSet,
  {3f462c26-9b76-4aba-9c91-15eff5d44447}, ! Handle
  Default Schedules,                      ! Name
  ,                                       ! Hours of Operation Schedule Name
  {8d7be67a-0489-48a2-908d-ce5c9dcc1c95}, ! Number of People Schedule Name
  {b8eb009d-5d6a-4e20-91b0-e8692967895a}, ! People Activity Level Schedule Name
  {fe15bc56-98f9-454f-856e-61b1aae30c5e}, ! Lighting Schedule Name
  {258b635e-0c3c-45c0-b5e2-3a0fa33bf781}, ! Electric Equipment Schedule Name
  {029dd768-5962-4128-a29b-29f8fe892236}, ! Gas Equipment Schedule Name
  {2b18b80e-7501-4717-84f8-944c43504dd3}, ! Hot Water Equipment Schedule Name
  {1e56baf0-5e36-41b2-af35-44571d688d6f}, ! Infiltration Schedule Name
  ,                                       ! Steam Equipment Schedule Name
  ;                                       ! Other Equipment Schedule Name

OS:Schedule:Ruleset,
  {8d7be67a-0489-48a2-908d-ce5c9dcc1c95}, ! Handle
  Medium Office Number of People Schedule, ! Name
  {80af0040-195e-4bc7-8ffa-4b24d883b623}, ! Schedule Type Limits Name
  {8da8be67-4037-4aa8-8efc-544445cc040f}, ! Default Day Schedule Name
  {dc8cd064-f74a-4615-84e3-9c5dacf46ca8}; ! Summer Design Day Schedule Name

OS:Schedule:Day,
  {8da8be67-4037-4aa8-8efc-544445cc040f}, ! Handle
  Medium Office Number of People All Other Days Schedule, ! Name
  {80af0040-195e-4bc7-8ffa-4b24d883b623}, ! Schedule Type Limits Name
  ,                                       ! Interpolate to Timestep
  24,                                     ! Hour 1
  0,                                      ! Minute 1
  0;                                      ! Value Until Time 1

OS:Schedule:Day,
  {c4d9eeca-0829-47ff-9f6c-7c6ac7afbb4d}, ! Handle
  Medium Office Number of People Summer Design Day Schedule, ! Name
  ,                                       ! Schedule Type Limits Name
  ,                                       ! Interpolate to Timestep
  6,                                      ! Hour 1
  0,                                      ! Minute 1
  0,                                      ! Value Until Time 1
  22,                                     ! Hour 2
  0,                                      ! Minute 2
  1,                                      ! Value Until Time 2
  24,                                     ! Hour 3
  0,                                      ! Minute 3
  0.05;                                   ! Value Until Time 3

OS:Schedule:Day,
  {dc8cd064-f74a-4615-84e3-9c5dacf46ca8}, ! Handle
  Medium Office Number of People Summer Design Day Schedule 1, ! Name
  {80af0040-195e-4bc7-8ffa-4b24d883b623}, ! Schedule Type Limits Name
  ,                                       ! Interpolate to Timestep
  6,                                      ! Hour 1
  0,                                      ! Minute 1
  0,                                      ! Value Until Time 1
  22,                                     ! Hour 2
  0,                                      ! Minute 2
  1,                                      ! Value Until Time 2
  24,                                     ! Hour 3
  0,                                      ! Minute 3
  0.05;                                   ! Value Until Time 3

OS:Schedule:Rule,
  {415e9f00-a9fa-4945-b086-2a7727cee6dc}, ! Handle
  Medium Office Number of People Schedule Weekdays Rule, ! Name
  {8d7be67a-0489-48a2-908d-ce5c9dcc1c95}, ! Schedule Ruleset Name
  1,                                      ! Rule Order
  {16beba71-7c47-44ba-a155-d9cca6a0fed4}, ! Day Schedule Name
  ,                                       ! Apply Sunday
  Yes,                                    ! Apply Monday
  Yes,                                    ! Apply Tuesday
  Yes,                                    ! Apply Wednesday
  Yes,                                    ! Apply Thursday
  Yes;                                    ! Apply Friday

OS:Schedule:Day,
  {16beba71-7c47-44ba-a155-d9cca6a0fed4}, ! Handle
  Medium Office Number of People Weekdays Schedule, ! Name
  {80af0040-195e-4bc7-8ffa-4b24d883b623}, ! Schedule Type Limits Name
  ,                                       ! Interpolate to Timestep
  6,                                      ! Hour 1
  0,                                      ! Minute 1
  0,                                      ! Value Until Time 1
  7,                                      ! Hour 2
  0,                                      ! Minute 2
  0.1,                                    ! Value Until Time 2
  8,                                      ! Hour 3
  0,                                      ! Minute 3
  0.2,                                    ! Value Until Time 3
  12,                                     ! Hour 4
  0,                                      ! Minute 4
  0.95,                                   ! Value Until Time 4
  13,                                     ! Hour 5
  0,                                      ! Minute 5
  0.5,                                    ! Value Until Time 5
  17,                                     ! Hour 6
  0,                                      ! Minute 6
  0.95,                                   ! Value Until Time 6
  18,                                     ! Hour 7
  0,                                      ! Minute 7
  0.7,                                    ! Value Until Time 7
  20,                                     ! Hour 8
  0,                                      ! Minute 8
  0.4,                                    ! Value Until Time 8
  22,                                     ! Hour 9
  0,                                      ! Minute 9
  0.1,                                    ! Value Until Time 9
  24,                                     ! Hour 10
  0,                                      ! Minute 10
  0.05;                                   ! Value Until Time 10

OS:Schedule:Rule,
  {652335ed-eb97-4f0a-ac2b-7e96e9971e66}, ! Handle
  Medium Office Number of People Schedule Saturday Rule, ! Name
  {8d7be67a-0489-48a2-908d-ce5c9dcc1c95}, ! Schedule Ruleset Name
  0,                                      ! Rule Order
  {8e183f8c-4021-435a-910c-f0fd4996baec}, ! Day Schedule Name
  ,                                       ! Apply Sunday
  ,                                       ! Apply Monday
  ,                                       ! Apply Tuesday
  ,                                       ! Apply Wednesday
  ,                                       ! Apply Thursday
  ,                                       ! Apply Friday
  Yes;                                    ! Apply Saturday

OS:Schedule:Day,
  {8e183f8c-4021-435a-910c-f0fd4996baec}, ! Handle
  Medium Office Number of People Saturday Schedule, ! Name
  {80af0040-195e-4bc7-8ffa-4b24d883b623}, ! Schedule Type Limits Name
  ,                                       ! Interpolate to Timestep
  6,                                      ! Hour 1
  0,                                      ! Minute 1
  0,                                      ! Value Until Time 1
  8,                                      ! Hour 2
  0,                                      ! Minute 2
  0.1,                                    ! Value Until Time 2
  14,                                     ! Hour 3
  0,                                      ! Minute 3
  0.5,                                    ! Value Until Time 3
  17,                                     ! Hour 4
  0,                                      ! Minute 4
  0.1,                                    ! Value Until Time 4
  24,                                     ! Hour 5
  0,                                      ! Minute 5
  0;                                      ! Value Until Time 5

OS:ScheduleTypeLimits,
  {80af0040-195e-4bc7-8ffa-4b24d883b623}, ! Handle
  Fractional,                             ! Name
  0,                                      ! Lower Limit Value {BasedOnField A4}
  1,                                      ! Upper Limit Value {BasedOnField A4}
  Continuous;                             ! Numeric Type

OS:Schedule:Ruleset,
  {b8eb009d-5d6a-4e20-91b0-e8692967895a}, ! Handle
  Medium Office People Activity Level Schedule, ! Name
  {1d890867-661b-44d2-be16-7c04604e46ac}, ! Schedule Type Limits Name
  {7b4fe666-0712-491a-a7a3-65b3ec29ddd1}; ! Default Day Schedule Name

OS:Schedule:Day,
  {7b4fe666-0712-491a-a7a3-65b3ec29ddd1}, ! Handle
  Medium Office People Activity Level All Days Schedule, ! Name
  {1d890867-661b-44d2-be16-7c04604e46ac}, ! Schedule Type Limits Name
  ,                                       ! Interpolate to Timestep
  24,                                     ! Hour 1
  0,                                      ! Minute 1
  120;                                    ! Value Until Time 1

OS:ScheduleTypeLimits,
  {1d890867-661b-44d2-be16-7c04604e46ac}, ! Handle
  ActivityLevel,                          ! Name
  0,                                      ! Lower Limit Value {BasedOnField A4}
  ,                                       ! Upper Limit Value {BasedOnField A4}
  Continuous,                             ! Numeric Type
  ActivityLevel;                          ! Unit Type

OS:Schedule:Ruleset,
  {fe15bc56-98f9-454f-856e-61b1aae30c5e}, ! Handle
  Medium Office Lighting Schedule,        ! Name
  {80af0040-195e-4bc7-8ffa-4b24d883b623}, ! Schedule Type Limits Name
  {a4616d12-aec0-41e0-9248-01fe439af93e}, ! Default Day Schedule Name
  {211b55b7-961c-47a8-b8e3-2c3603152921}, ! Summer Design Day Schedule Name
  {07064918-9e08-453e-899e-370ff87224ba}; ! Winter Design Day Schedule Name

OS:Schedule:Day,
  {a4616d12-aec0-41e0-9248-01fe439af93e}, ! Handle
  Medium Office Lighting All Other Days Schedule, ! Name
  {80af0040-195e-4bc7-8ffa-4b24d883b623}, ! Schedule Type Limits Name
  ,                                       ! Interpolate to Timestep
  24,                                     ! Hour 1
  0,                                      ! Minute 1
  0.05;                                   ! Value Until Time 1

OS:Schedule:Day,
  {650f2452-5e4e-4935-98ed-1d8d66118c1e}, ! Handle
  Medium Office Lighting Summer Design Day Schedule, ! Name
  ,                                       ! Schedule Type Limits Name
  ,                                       ! Interpolate to Timestep
  6,                                      ! Hour 1
  0,                                      ! Minute 1
  1,                                      ! Value Until Time 1
  24,                                     ! Hour 2
  0,                                      ! Minute 2
  0;                                      ! Value Until Time 2

OS:Schedule:Day,
  {211b55b7-961c-47a8-b8e3-2c3603152921}, ! Handle
  Medium Office Lighting Summer Design Day Schedule 1, ! Name
  {80af0040-195e-4bc7-8ffa-4b24d883b623}, ! Schedule Type Limits Name
  ,                                       ! Interpolate to Timestep
  6,                                      ! Hour 1
  0,                                      ! Minute 1
  1,                                      ! Value Until Time 1
  24,                                     ! Hour 2
  0,                                      ! Minute 2
  0;                                      ! Value Until Time 2

OS:Schedule:Day,
  {6f898ff9-8bbf-478c-aecf-bef6ee2899a6}, ! Handle
  Medium Office Lighting Winter Design Day Schedule, ! Name
  ,                                       ! Schedule Type Limits Name
  ,                                       ! Interpolate to Timestep
  24,                                     ! Hour 1
  0,                                      ! Minute 1
  0;                                      ! Value Until Time 1

OS:Schedule:Day,
  {07064918-9e08-453e-899e-370ff87224ba}, ! Handle
  Medium Office Lighting Winter Design Day Schedule 1, ! Name
  {80af0040-195e-4bc7-8ffa-4b24d883b623}, ! Schedule Type Limits Name
  ,                                       ! Interpolate to Timestep
  24,                                     ! Hour 1
  0,                                      ! Minute 1
  0;                                      ! Value Until Time 1

OS:Schedule:Rule,
  {12464304-302f-4627-a3ba-07bc76eb3701}, ! Handle
  Medium Office Lighting Schedule Weekdays Rule, ! Name
  {fe15bc56-98f9-454f-856e-61b1aae30c5e}, ! Schedule Ruleset Name
  1,                                      ! Rule Order
  {e787135d-2989-42f1-8599-f1b4ed89f262}, ! Day Schedule Name
  ,                                       ! Apply Sunday
  Yes,                                    ! Apply Monday
  Yes,                                    ! Apply Tuesday
  Yes,                                    ! Apply Wednesday
  Yes,                                    ! Apply Thursday
  Yes;                                    ! Apply Friday

OS:Schedule:Day,
  {e787135d-2989-42f1-8599-f1b4ed89f262}, ! Handle
  Medium Office Lighting Weekdays Schedule, ! Name
  {80af0040-195e-4bc7-8ffa-4b24d883b623}, ! Schedule Type Limits Name
  ,                                       ! Interpolate to Timestep
  5,                                      ! Hour 1
  0,                                      ! Minute 1
  0.05,                                   ! Value Until Time 1
  7,                                      ! Hour 2
  0,                                      ! Minute 2
  0.1,                                    ! Value Until Time 2
  8,                                      ! Hour 3
  0,                                      ! Minute 3
  0.3,                                    ! Value Until Time 3
  17,                                     ! Hour 4
  0,                                      ! Minute 4
  0.9,                                    ! Value Until Time 4
  18,                                     ! Hour 5
  0,                                      ! Minute 5
  0.7,                                    ! Value Until Time 5
  20,                                     ! Hour 6
  0,                                      ! Minute 6
  0.5,                                    ! Value Until Time 6
  22,                                     ! Hour 7
  0,                                      ! Minute 7
  0.3,                                    ! Value Until Time 7
  23,                                     ! Hour 8
  0,                                      ! Minute 8
  0.1,                                    ! Value Until Time 8
  24,                                     ! Hour 9
  0,                                      ! Minute 9
  0.05;                                   ! Value Until Time 9

OS:Schedule:Rule,
  {4b3885c5-a623-45d6-9988-cbeb3777432c}, ! Handle
  Medium Office Lighting Schedule Saturday Rule, ! Name
  {fe15bc56-98f9-454f-856e-61b1aae30c5e}, ! Schedule Ruleset Name
  0,                                      ! Rule Order
  {0e7cac8f-c4ec-4043-8c19-dd13bf56b31d}, ! Day Schedule Name
  ,                                       ! Apply Sunday
  ,                                       ! Apply Monday
  ,                                       ! Apply Tuesday
  ,                                       ! Apply Wednesday
  ,                                       ! Apply Thursday
  ,                                       ! Apply Friday
  Yes;                                    ! Apply Saturday

OS:Schedule:Day,
  {0e7cac8f-c4ec-4043-8c19-dd13bf56b31d}, ! Handle
  Medium Office Lighting Saturday Schedule, ! Name
  {80af0040-195e-4bc7-8ffa-4b24d883b623}, ! Schedule Type Limits Name
  ,                                       ! Interpolate to Timestep
  6,                                      ! Hour 1
  0,                                      ! Minute 1
  0.05,                                   ! Value Until Time 1
  8,                                      ! Hour 2
  0,                                      ! Minute 2
  0.1,                                    ! Value Until Time 2
  14,                                     ! Hour 3
  0,                                      ! Minute 3
  0.5,                                    ! Value Until Time 3
  17,                                     ! Hour 4
  0,                                      ! Minute 4
  0.15,                                   ! Value Until Time 4
  24,                                     ! Hour 5
  0,                                      ! Minute 5
  0.05;                                   ! Value Until Time 5

OS:Schedule:Ruleset,
  {258b635e-0c3c-45c0-b5e2-3a0fa33bf781}, ! Handle
  Medium Office Electric Equipment Schedule, ! Name
  {80af0040-195e-4bc7-8ffa-4b24d883b623}, ! Schedule Type Limits Name
  {18ec91ea-c2c3-4802-90c4-1e174c942e63}, ! Default Day Schedule Name
  {621431f0-ebc0-40ac-8ebe-bf95c9ce527c}, ! Summer Design Day Schedule Name
  {1909b686-0a5a-4a47-96a7-021d024fbf46}; ! Winter Design Day Schedule Name

OS:Schedule:Day,
  {18ec91ea-c2c3-4802-90c4-1e174c942e63}, ! Handle
  Medium Office Electric Equipment All Other Days Schedule, ! Name
  {80af0040-195e-4bc7-8ffa-4b24d883b623}, ! Schedule Type Limits Name
  ,                                       ! Interpolate to Timestep
  24,                                     ! Hour 1
  0,                                      ! Minute 1
  0.3;                                    ! Value Until Time 1

OS:Schedule:Day,
  {e25e4b0f-d5b3-4dc1-aa09-f8722638a7cb}, ! Handle
  Medium Office Electric Equipment Summer Design Day Schedule, ! Name
  ,                                       ! Schedule Type Limits Name
  ,                                       ! Interpolate to Timestep
  6,                                      ! Hour 1
  0,                                      ! Minute 1
  1,                                      ! Value Until Time 1
  24,                                     ! Hour 2
  0,                                      ! Minute 2
  0;                                      ! Value Until Time 2

OS:Schedule:Day,
  {621431f0-ebc0-40ac-8ebe-bf95c9ce527c}, ! Handle
  Medium Office Electric Equipment Summer Design Day Schedule 1, ! Name
  {80af0040-195e-4bc7-8ffa-4b24d883b623}, ! Schedule Type Limits Name
  ,                                       ! Interpolate to Timestep
  6,                                      ! Hour 1
  0,                                      ! Minute 1
  1,                                      ! Value Until Time 1
  24,                                     ! Hour 2
  0,                                      ! Minute 2
  0;                                      ! Value Until Time 2

OS:Schedule:Day,
  {371e7b47-71f7-44ec-9991-791cfa054454}, ! Handle
  Medium Office Electric Equipment Winter Design Day Schedule, ! Name
  ,                                       ! Schedule Type Limits Name
  ,                                       ! Interpolate to Timestep
  24,                                     ! Hour 1
  0,                                      ! Minute 1
  0;                                      ! Value Until Time 1

OS:Schedule:Day,
  {1909b686-0a5a-4a47-96a7-021d024fbf46}, ! Handle
  Medium Office Electric Equipment Winter Design Day Schedule 1, ! Name
  {80af0040-195e-4bc7-8ffa-4b24d883b623}, ! Schedule Type Limits Name
  ,                                       ! Interpolate to Timestep
  24,                                     ! Hour 1
  0,                                      ! Minute 1
  0;                                      ! Value Until Time 1

OS:Schedule:Rule,
  {51553a55-e5b4-49f1-bff2-8d01f41e95c2}, ! Handle
  Medium Office Electric Equipment Schedule Weekdays Rule, ! Name
  {258b635e-0c3c-45c0-b5e2-3a0fa33bf781}, ! Schedule Ruleset Name
  1,                                      ! Rule Order
  {742a4cf8-56f7-4db7-98f8-07385164cb5f}, ! Day Schedule Name
  ,                                       ! Apply Sunday
  Yes,                                    ! Apply Monday
  Yes,                                    ! Apply Tuesday
  Yes,                                    ! Apply Wednesday
  Yes,                                    ! Apply Thursday
  Yes;                                    ! Apply Friday

OS:Schedule:Day,
  {742a4cf8-56f7-4db7-98f8-07385164cb5f}, ! Handle
  Medium Office Electric Equipment Weekdays Schedule, ! Name
  {80af0040-195e-4bc7-8ffa-4b24d883b623}, ! Schedule Type Limits Name
  ,                                       ! Interpolate to Timestep
  8,                                      ! Hour 1
  0,                                      ! Minute 1
  0.4,                                    ! Value Until Time 1
  12,                                     ! Hour 2
  0,                                      ! Minute 2
  0.9,                                    ! Value Until Time 2
  13,                                     ! Hour 3
  0,                                      ! Minute 3
  0.8,                                    ! Value Until Time 3
  17,                                     ! Hour 4
  0,                                      ! Minute 4
  0.9,                                    ! Value Until Time 4
  18,                                     ! Hour 5
  0,                                      ! Minute 5
  0.8,                                    ! Value Until Time 5
  20,                                     ! Hour 6
  0,                                      ! Minute 6
  0.6,                                    ! Value Until Time 6
  22,                                     ! Hour 7
  0,                                      ! Minute 7
  0.5,                                    ! Value Until Time 7
  24,                                     ! Hour 8
  0,                                      ! Minute 8
  0.4;                                    ! Value Until Time 8

OS:Schedule:Rule,
  {f1be548a-2d13-4b49-ab6c-e867b401098b}, ! Handle
  Medium Office Electric Equipment Schedule Saturday Rule, ! Name
  {258b635e-0c3c-45c0-b5e2-3a0fa33bf781}, ! Schedule Ruleset Name
  0,                                      ! Rule Order
  {43fc6855-7f84-4b45-b0f1-fd0027199158}, ! Day Schedule Name
  ,                                       ! Apply Sunday
  ,                                       ! Apply Monday
  ,                                       ! Apply Tuesday
  ,                                       ! Apply Wednesday
  ,                                       ! Apply Thursday
  ,                                       ! Apply Friday
  Yes;                                    ! Apply Saturday

OS:Schedule:Day,
  {43fc6855-7f84-4b45-b0f1-fd0027199158}, ! Handle
  Medium Office Electric Equipment Saturday Schedule, ! Name
  {80af0040-195e-4bc7-8ffa-4b24d883b623}, ! Schedule Type Limits Name
  ,                                       ! Interpolate to Timestep