
OS:Version,
  {0fa26002-adb2-4cb3-8297-575c46af4ac9}, !- Handle
  1.1.0;                                  !- Version Identifier

OS:SimulationControl,
  {78b735ff-7770-4971-b424-c2d8623d8010}, !- Handle
  Yes,                                    !- Do Zone Sizing Calculation
  Yes,                                    !- Do System Sizing Calculation
  ,                                       !- Do Plant Sizing Calculation
  No,                                     !- Run Simulation for Sizing Periods
  Yes;                                    !- Run Simulation for Weather File Run Periods

OS:Timestep,
  {ad9b2f73-0e81-4e88-b105-b9ab765490ab}, !- Handle
  6;                                      !- Number of Timesteps per Hour

OS:RunPeriod,
  {6e20d91e-22ba-46f5-bca9-533ca65b0744}, !- Handle
  Run Period 1,                           !- Name
  1,                                      !- Begin Month
  1,                                      !- Begin Day of Month
  12,                                     !- End Month
  31,                                     !- End Day of Month
  No,                                     !- Use Weather File Holidays and Special Days
  No,                                     !- Use Weather File Daylight Saving Period
  No,                                     !- Apply Weekend Holiday Rule
  Yes,                                    !- Use Weather File Rain Indicators
  Yes,                                    !- Use Weather File Snow Indicators
  1;                                      !- Number of Times Runperiod to be Repeated

OS:SurfaceConvectionAlgorithm:Inside,
  {be5e9307-b3a2-4743-a4e8-69c616014a1b}, !- Handle
  TARP;                                   !- Algorithm

OS:SurfaceConvectionAlgorithm:Outside,
  {b28bc412-50e3-45a6-b4a6-5cca8605a7b3}, !- Handle
  DOE-2;                                  !- Algorithm

OS:HeatBalanceAlgorithm,
  {e614d55b-d7ac-4e1c-b2e8-4eddf8ae7e08}, !- Handle
  ConductionTransferFunction,             !- Algorithm
  200;                                    !- Surface Temperature Upper Limit {F}

OS:ZoneAirHeatBalanceAlgorithm,
  {569a2704-906b-46eb-aa43-73fd37296585}, !- Handle
  AnalyticalSolution;                     !- Algorithm

OS:ConvergenceLimits,
  {9384cff3-6809-4612-a8f3-4f504cdcf621}; !- Handle

OS:ShadowCalculation,
  {ce4e5070-7969-4a19-95e1-70509c423379}, !- Handle
  7,                                      !- Calculation Frequency
  15000;                                  !- Maximum Figures in Shadow Overlap Calculations

OS:Site,
  {9065b58e-3388-47e5-b2b2-779ebf271623}, !- Handle
  Site 1,                                 !- Name
  41.77,                                  !- Latitude {deg}
  -87.75,                                 !- Longitude {deg}
  -6,                                     !- Time Zone {hr}
  190,                                    !- Elevation {m}
  ;                                       !- Terrain

OS:Site:GroundTemperature:BuildingSurface,
  {07691b56-f3e7-4e78-8cb4-fe7b952ce581}, !- Handle
  19.527,                                 !- January Ground Temperature {C}
  19.502,                                 !- February Ground Temperature {C}
  19.536,                                 !- March Ground Temperature {C}
  19.598,                                 !- April Ground Temperature {C}
  20.002,                                 !- May Ground Temperature {C}
  21.64,                                  !- June Ground Temperature {C}
  22.225,                                 !- July Ground Temperature {C}
  22.375,                                 !- August Ground Temperature {C}
  21.449,                                 !- September Ground Temperature {C}
  20.121,                                 !- October Ground Temperature {C}
  19.802,                                 !- November Ground Temperature {C}
  19.633;                                 !- December Ground Temperature {C}

OS:Site:WaterMainsTemperature,
  {b7d0ff44-5e3b-4714-9b13-b3936018d77a}, !- Handle
  Correlation,                            !- Calculation Method
  ,                                       !- Temperature Schedule Name
  9.69,                                   !- Annual Average Outdoor Air Temperature {C}
  28.1;                                   !- Maximum Difference In Monthly Average Outdoor Air Temperatures {deltaC}

OS:SizingPeriod:DesignDay,
  {d911b9b2-5d3b-480f-9778-322dfd233b59}, !- Handle
  Sizing Period Design Day 1,             !- Name
  -20.6,                                  !- Maximum Dry-Bulb Temperature {C}
  0,                                      !- Daily Dry-Bulb Temperature Range {deltaC}
  -20.6,                                  !- Humidity Indicating Conditions at Maximum Dry-Bulb {BasedOnField A3}
  99063,                                  !- Barometric Pressure {Pa}
  4.9,                                    !- Wind Speed {m/s}
  270,                                    !- Wind Direction {deg}
  0,                                      !- Sky Clearness
  0,                                      !- Rain Indicator
  0,                                      !- Snow Indicator
  21,                                     !- Day of Month
  1,                                      !- Month
  WinterDesignDay,                        !- Day Type
  0,                                      !- Daylight Saving Time Indicator
  WetBulb,                                !- Humidity Indicating Type
  ,                                       !- Humidity Indicating Day Schedule Name
  DefaultMultipliers,                     !- Dry-Bulb Temperature Range Modifier Type
  ,                                       !- Dry-Bulb Temperature Range Modifier Schedule Name
  AshraeClearSky;                         !- Solar Model Indicator

OS:SizingPeriod:DesignDay,
  {b72094dc-38c7-4953-91c4-f0f157b81540}, !- Handle
  Sizing Period Design Day 2,             !- Name
  33.2,                                   !- Maximum Dry-Bulb Temperature {C}
  10.7,                                   !- Daily Dry-Bulb Temperature Range {deltaC}
  23.8,                                   !- Humidity Indicating Conditions at Maximum Dry-Bulb {BasedOnField A3}
  99063,                                  !- Barometric Pressure {Pa}
  5.3,                                    !- Wind Speed {m/s}
  230,                                    !- Wind Direction {deg}
  1,                                      !- Sky Clearness
  0,                                      !- Rain Indicator
  0,                                      !- Snow Indicator
  21,                                     !- Day of Month
  7,                                      !- Month
  SummerDesignDay,                        !- Day Type
  0,                                      !- Daylight Saving Time Indicator
  WetBulb,                                !- Humidity Indicating Type
  ,                                       !- Humidity Indicating Day Schedule Name
  DefaultMultipliers,                     !- Dry-Bulb Temperature Range Modifier Type
  ,                                       !- Dry-Bulb Temperature Range Modifier Schedule Name
  AshraeClearSky;                         !- Solar Model Indicator

OS:ScheduleTypeLimits,
  {1228880f-cbe7-4bbc-a3a1-42d1210f7fbe}, !- Handle
  Temperature,                            !- Name
  -60,                                    !- Lower Limit Value {BasedOnField A4}
  200,                                    !- Upper Limit Value {BasedOnField A4}
  CONTINUOUS,                             !- Numeric Type
  Temperature;                            !- Unit Type

OS:DefaultScheduleSet,
  {80679aa7-09e8-465a-b17b-9cb9f9e5b99f}, !- Handle
  Default Schedules,                      !- Name
  ,                                       !- Hours of Operation Schedule Name
  {d5edea8f-c190-4897-81f0-dc350272d6c8}, !- Number of People Schedule Name
  {575edae3-fc91-445b-8d6e-a8a3f34ad6cc}, !- People Activity Level Schedule Name
  {1366d686-c91a-4652-9880-fc5757f55126}, !- Lighting Schedule Name
  {2ac85caf-30fb-48a7-8b9b-2348bdeab57c}, !- Electric Equipment Schedule Name
  {d1103376-3a93-42db-a367-5f6f327fb900}, !- Gas Equipment Schedule Name
  {1db315b7-5e44-48d4-9272-2cd7f49b7d7c}, !- Hot Water Equipment Schedule Name
  {cdefb727-8c41-4c07-8faa-9c473daf5671}, !- Infiltration Schedule Name
  ,                                       !- Steam Equipment Schedule Name
  ;                                       !- Other Equipment Schedule Name

OS:Schedule:Ruleset,
  {d5edea8f-c190-4897-81f0-dc350272d6c8}, !- Handle
  Medium Office Number of People Schedule, !- Name
  {84a55f73-203c-45f2-bf18-1c248c4ab063}, !- Schedule Type Limits Name
  {a719030c-2b78-454f-bcbd-62660e96cef4}, !- Default Day Schedule Name
  {4273d06a-de10-4853-934e-cb04b2b9a29f}; !- Summer Design Day Schedule Name

OS:Schedule:Day,
  {a719030c-2b78-454f-bcbd-62660e96cef4}, !- Handle
  Medium Office Number of People All Other Days Schedule, !- Name
  {84a55f73-203c-45f2-bf18-1c248c4ab063}, !- Schedule Type Limits Name
  ,                                       !- Interpolate to Timestep
  24,                                     !- Hour 1
  0,                                      !- Minute 1
  0;                                      !- Value Until Time 1

OS:Schedule:Day,
  {fbf730c7-eb67-41fa-807f-7f0a01728e03}, !- Handle
  Medium Office Number of People Summer Design Day Schedule, !- Name
  ,                                       !- Schedule Type Limits Name
  ,                                       !- Interpolate to Timestep
  6,                                      !- Hour 1
  0,                                      !- Minute 1
  0,                                      !- Value Until Time 1
  22,                                     !- Hour 2
  0,                                      !- Minute 2
  1,                                      !- Value Until Time 2
  24,                                     !- Hour 3
  0,                                      !- Minute 3
  0.05;                                   !- Value Until Time 3

OS:Schedule:Day,
  {4273d06a-de10-4853-934e-cb04b2b9a29f}, !- Handle
  Medium Office Number of People Summer Design Day Schedule 1, !- Name
  {84a55f73-203c-45f2-bf18-1c248c4ab063}, !- Schedule Type Limits Name
  ,                                       !- Interpolate to Timestep
  6,                                      !- Hour 1
  0,                                      !- Minute 1
  0,                                      !- Value Until Time 1
  22,                                     !- Hour 2
  0,                                      !- Minute 2
  1,                                      !- Value Until Time 2
  24,                                     !- Hour 3
  0,                                      !- Minute 3
  0.05;                                   !- Value Until Time 3

OS:Schedule:Rule,
  {3ae04d19-2732-4aa1-83aa-4fe67559a876}, !- Handle
  Medium Office Number of People Schedule Weekdays Rule, !- Name
  {d5edea8f-c190-4897-81f0-dc350272d6c8}, !- Schedule Ruleset Name
  1,                                      !- Rule Order
  {0166aa1c-54c7-410a-b989-04d1a297650e}, !- Day Schedule Name
  ,                                       !- Apply Sunday
  Yes,                                    !- Apply Monday
  Yes,                                    !- Apply Tuesday
  Yes,                                    !- Apply Wednesday
  Yes,                                    !- Apply Thursday
  Yes;                                    !- Apply Friday

OS:Schedule:Day,
  {0166aa1c-54c7-410a-b989-04d1a297650e}, !- Handle
  Medium Office Number of People Weekdays Schedule, !- Name
  {84a55f73-203c-45f2-bf18-1c248c4ab063}, !- Schedule Type Limits Name
  ,                                       !- Interpolate to Timestep
  6,                                      !- Hour 1
  0,                                      !- Minute 1
  0,                                      !- Value Until Time 1
  7,                                      !- Hour 2
  0,                                      !- Minute 2
  0.1,                                    !- Value Until Time 2
  8,                                      !- Hour 3
  0,                                      !- Minute 3
  0.2,                                    !- Value Until Time 3
  12,                                     !- Hour 4
  0,                                      !- Minute 4
  0.95,                                   !- Value Until Time 4
  13,                                     !- Hour 5
  0,                                      !- Minute 5
  0.5,                                    !- Value Until Time 5
  17,                                     !- Hour 6
  0,                                      !- Minute 6
  0.95,                                   !- Value Until Time 6
  18,                                     !- Hour 7
  0,                                      !- Minute 7
  0.7,                                    !- Value Until Time 7
  20,                                     !- Hour 8
  0,                                      !- Minute 8
  0.4,                                    !- Value Until Time 8
  22,                                     !- Hour 9
  0,                                      !- Minute 9
  0.1,                                    !- Value Until Time 9
  24,                                     !- Hour 10
  0,                                      !- Minute 10
  0.05;                                   !- Value Until Time 10

OS:Schedule:Rule,
  {150413c5-725e-460e-bd32-2d829007b332}, !- Handle
  Medium Office Number of People Schedule Saturday Rule, !- Name
  {d5edea8f-c190-4897-81f0-dc350272d6c8}, !- Schedule Ruleset Name
  0,                                      !- Rule Order
  {585585e6-7fa0-4a87-8806-9657933d4e88}, !- Day Schedule Name
  ,                                       !- Apply Sunday
  ,                                       !- Apply Monday
  ,                                       !- Apply Tuesday
  ,                                       !- Apply Wednesday
  ,                                       !- Apply Thursday
  ,                                       !- Apply Friday
  Yes;                                    !- Apply Saturday

OS:Schedule:Day,
  {585585e6-7fa0-4a87-8806-9657933d4e88}, !- Handle
  Medium Office Number of People Saturday Schedule, !- Name
  {84a55f73-203c-45f2-bf18-1c248c4ab063}, !- Schedule Type Limits Name
  ,                                       !- Interpolate to Timestep
  6,                                      !- Hour 1
  0,                                      !- Minute 1
  0,                                      !- Value Until Time 1
  8,                                      !- Hour 2
  0,                                      !- Minute 2
  0.1,                                    !- Value Until Time 2
  14,                                     !- Hour 3
  0,                                      !- Minute 3
  0.5,                                    !- Value Until Time 3
  17,                                     !- Hour 4
  0,                                      !- Minute 4
  0.1,                                    !- Value Until Time 4
  24,                                     !- Hour 5
  0,                                      !- Minute 5
  0;                                      !- Value Until Time 5

OS:ScheduleTypeLimits,
  {84a55f73-203c-45f2-bf18-1c248c4ab063}, !- Handle
  Fractional,                             !- Name
  0,                                      !- Lower Limit Value {BasedOnField A4}
  1,                                      !- Upper Limit Value {BasedOnField A4}
  Continuous;                             !- Numeric Type

OS:Schedule:Ruleset,
  {575edae3-fc91-445b-8d6e-a8a3f34ad6cc}, !- Handle
  Medium Office People Activity Level Schedule, !- Name
  {5e4d1013-6031-4449-a017-09abe4fe0731}, !- Schedule Type Limits Name
  {12efbac4-20fc-4ec4-8978-5fffeec2e7f1}; !- Default Day Schedule Name

OS:Schedule:Day,
  {12efbac4-20fc-4ec4-8978-5fffeec2e7f1}, !- Handle
  Medium Office People Activity Level All Days Schedule, !- Name
  {5e4d1013-6031-4449-a017-09abe4fe0731}, !- Schedule Type Limits Name
  ,                                       !- Interpolate to Timestep
  24,                                     !- Hour 1
  0,                                      !- Minute 1
  120;                                    !- Value Until Time 1

OS:ScheduleTypeLimits,
  {5e4d1013-6031-4449-a017-09abe4fe0731}, !- Handle
  ActivityLevel,                          !- Name
  0,                                      !- Lower Limit Value {BasedOnField A4}
  ,                                       !- Upper Limit Value {BasedOnField A4}
  Continuous,                             !- Numeric Type
  ActivityLevel;                          !- Unit Type

OS:Schedule:Ruleset,
  {1366d686-c91a-4652-9880-fc5757f55126}, !- Handle
  Medium Office Lighting Schedule,        !- Name
  {84a55f73-203c-45f2-bf18-1c248c4ab063}, !- Schedule Type Limits Name
  {2e6df8ce-a40a-4c4f-bf7e-7441db886ce7}, !- Default Day Schedule Name
  {02e535e2-4899-439b-9b68-0921600c938f}, !- Summer Design Day Schedule Name
  {c0edb2e9-7070-42c4-9643-1a61d8ac1af1}; !- Winter Design Day Schedule Name

OS:Schedule:Day,
  {2e6df8ce-a40a-4c4f-bf7e-7441db886ce7}, !- Handle
  Medium Office Lighting All Other Days Schedule, !- Name
  {84a55f73-203c-45f2-bf18-1c248c4ab063}, !- Schedule Type Limits Name
  ,                                       !- Interpolate to Timestep
  24,                                     !- Hour 1
  0,                                      !- Minute 1
  0.05;                                   !- Value Until Time 1

OS:Schedule:Day,
  {eb5a5b7a-1c8e-4650-ab2d-747e097b2a46}, !- Handle
  Medium Office Lighting Summer Design Day Schedule, !- Name
  ,                                       !- Schedule Type Limits Name
  ,                                       !- Interpolate to Timestep
  6,                                      !- Hour 1
  0,                                      !- Minute 1
  1,                                      !- Value Until Time 1
  24,                                     !- Hour 2
  0,                                      !- Minute 2
  0;                                      !- Value Until Time 2

OS:Schedule:Day,
  {02e535e2-4899-439b-9b68-0921600c938f}, !- Handle
  Medium Office Lighting Summer Design Day Schedule 1, !- Name
  {84a55f73-203c-45f2-bf18-1c248c4ab063}, !- Schedule Type Limits Name
  ,                                       !- Interpolate to Timestep
  6,                                      !- Hour 1
  0,                                      !- Minute 1
  1,                                      !- Value Until Time 1
  24,                                     !- Hour 2
  0,                                      !- Minute 2
  0;                                      !- Value Until Time 2

OS:Schedule:Day,
  {0b86cb24-035b-4d5f-a244-e108aa6e7362}, !- Handle
  Medium Office Lighting Winter Design Day Schedule, !- Name
  ,                                       !- Schedule Type Limits Name
  ,                                       !- Interpolate to Timestep
  24,                                     !- Hour 1
  0,                                      !- Minute 1
  0;                                      !- Value Until Time 1

OS:Schedule:Day,
  {c0edb2e9-7070-42c4-9643-1a61d8ac1af1}, !- Handle
  Medium Office Lighting Winter Design Day Schedule 1, !- Name
  {84a55f73-203c-45f2-bf18-1c248c4ab063}, !- Schedule Type Limits Name
  ,                                       !- Interpolate to Timestep
  24,                                     !- Hour 1
  0,                                      !- Minute 1
  0;                                      !- Value Until Time 1

OS:Schedule:Rule,
  {9c37574b-3807-47d3-98b3-79462f069353}, !- Handle
  Medium Office Lighting Schedule Weekdays Rule, !- Name
  {1366d686-c91a-4652-9880-fc5757f55126}, !- Schedule Ruleset Name
  1,                                      !- Rule Order
  {e15f4a90-d2d8-4541-a12d-887eca0c53f4}, !- Day Schedule Name
  ,                                       !- Apply Sunday
  Yes,                                    !- Apply Monday
  Yes,                                    !- Apply Tuesday
  Yes,                                    !- Apply Wednesday
  Yes,                                    !- Apply Thursday
  Yes;                                    !- Apply Friday

OS:Schedule:Day,
  {e15f4a90-d2d8-4541-a12d-887eca0c53f4}, !- Handle
  Medium Office Lighting Weekdays Schedule, !- Name
  {84a55f73-203c-45f2-bf18-1c248c4ab063}, !- Schedule Type Limits Name
  ,                                       !- Interpolate to Timestep
  5,                                      !- Hour 1
  0,                                      !- Minute 1
  0.05,                                   !- Value Until Time 1
  7,                                      !- Hour 2
  0,                                      !- Minute 2
  0.1,                                    !- Value Until Time 2
  8,                                      !- Hour 3
  0,                                      !- Minute 3
  0.3,                                    !- Value Until Time 3
  17,                                     !- Hour 4
  0,                                      !- Minute 4
  0.9,                                    !- Value Until Time 4
  18,                                     !- Hour 5
  0,                                      !- Minute 5
  0.7,                                    !- Value Until Time 5
  20,                                     !- Hour 6
  0,                                      !- Minute 6
  0.5,                                    !- Value Until Time 6
  22,                                     !- Hour 7
  0,                                      !- Minute 7
  0.3,                                    !- Value Until Time 7
  23,                                     !- Hour 8
  0,                                      !- Minute 8
  0.1,                                    !- Value Until Time 8
  24,                                     !- Hour 9
  0,                                      !- Minute 9
  0.05;                                   !- Value Until Time 9

OS:Schedule:Rule,
  {cd7975e3-5ff2-4be2-b4f2-d823f3b40691}, !- Handle
  Medium Office Lighting Schedule Saturday Rule, !- Name
  {1366d686-c91a-4652-9880-fc5757f55126}, !- Schedule Ruleset Name
  0,                                      !- Rule Order
  {c6e06af8-2eb4-41f5-ae30-f9dfe50b09f3}, !- Day Schedule Name
  ,                                       !- Apply Sunday
  ,                                       !- Apply Monday
  ,                                       !- Apply Tuesday
  ,                                       !- Apply Wednesday
  ,                                       !- Apply Thursday
  ,                                       !- Apply Friday
  Yes;                                    !- Apply Saturday

OS:Schedule:Day,
  {c6e06af8-2eb4-41f5-ae30-f9dfe50b09f3}, !- Handle
  Medium Office Lighting Saturday Schedule, !- Name
  {84a55f73-203c-45f2-bf18-1c248c4ab063}, !- Schedule Type Limits Name
  ,                                       !- Interpolate to Timestep
  6,                                      !- Hour 1
  0,                                      !- Minute 1
  0.05,                                   !- Value Until Time 1
  8,                                      !- Hour 2
  0,                                      !- Minute 2
  0.1,                                    !- Value Until Time 2
  14,                                     !- Hour 3
  0,                                      !- Minute 3
  0.5,                                    !- Value Until Time 3
  17,                                     !- Hour 4
  0,                                      !- Minute 4
  0.15,                                   !- Value Until Time 4
  24,                                     !- Hour 5
  0,                                      !- Minute 5
  0.05;                                   !- Value Until Time 5

OS:Schedule:Ruleset,
  {2ac85caf-30fb-48a7-8b9b-2348bdeab57c}, !- Handle
  Medium Office Electric Equipment Schedule, !- Name
  {84a55f73-203c-45f2-bf18-1c248c4ab063}, !- Schedule Type Limits Name
  {d7912018-ffbe-4922-815f-2b347f440340}, !- Default Day Schedule Name
  {c2c06406-443e-4d57-9125-5a33f83fb334}, !- Summer Design Day Schedule Name
  {6f9b33ce-6933-43c7-8380-f5a1c51b2ca3}; !- Winter Design Day Schedule Name

OS:Schedule:Day,
  {d7912018-ffbe-4922-815f-2b347f440340}, !- Handle
  Medium Office Electric Equipment All Other Days Schedule, !- Name
  {84a55f73-203c-45f2-bf18-1c248c4ab063}, !- Schedule Type Limits Name
  ,                                       !- Interpolate to Timestep
  24,                                     !- Hour 1
  0,                                      !- Minute 1
  0.3;                                    !- Value Until Time 1

OS:Schedule:Day,
  {cbd8fc15-9415-4dcb-a686-ad5e1dbda10e}, !- Handle
  Medium Office Electric Equipment Summer Design Day Schedule, !- Name
  ,                                       !- Schedule Type Limits Name
  ,                                       !- Interpolate to Timestep
  6,                                      !- Hour 1
  0,                                      !- Minute 1
  1,                                      !- Value Until Time 1
  24,                                     !- Hour 2
  0,                                      !- Minute 2
  0;                                      !- Value Until Time 2

OS:Schedule:Day,
  {c2c06406-443e-4d57-9125-5a33f83fb334}, !- Handle
  Medium Office Electric Equipment Summer Design Day Schedule 1, !- Name
  {84a55f73-203c-45f2-bf18-1c248c4ab063}, !- Schedule Type Limits Name
  ,                                       !- Interpolate to Timestep
  6,                                      !- Hour 1
  0,                                      !- Minute 1
  1,                                      !- Value Until Time 1
  24,                                     !- Hour 2
  0,                                      !- Minute 2
  0;                                      !- Value Until Time 2

OS:Schedule:Day,
  {33c9a626-f1e1-4467-8487-bbe105cc5c80}, !- Handle
  Medium Office Electric Equipment Winter Design Day Schedule, !- Name
  ,                                       !- Schedule Type Limits Name
  ,                                       !- Interpolate to Timestep
  24,                                     !- Hour 1
  0,                                      !- Minute 1
  0;                                      !- Value Until Time 1

OS:Schedule:Day,
  {6f9b33ce-6933-43c7-8380-f5a1c51b2ca3}, !- Handle
  Medium Office Electric Equipment Winter Design Day Schedule 1, !- Name
  {84a55f73-203c-45f2-bf18-1c248c4ab063}, !- Schedule Type Limits Name
  ,                                       !- Interpolate to Timestep
  24,                                     !- Hour 1
  0,                                      !- Minute 1
  0;                                      !- Value Until Time 1

OS:Schedule:Rule,
  {648ad913-bc03-487f-9e0f-5207086c8dac}, !- Handle
  Medium Office Electric Equipment Schedule Weekdays Rule, !- Name
  {2ac85caf-30fb-48a7-8b9b-2348bdeab57c}, !- Schedule Ruleset Name
  1,                                      !- Rule Order
  {8b72577f-5a4a-4b89-9e18-d596abf66d50}, !- Day Schedule Name
  ,                                       !- Apply Sunday
  Yes,                                    !- Apply Monday
  Yes,                                    !- Apply Tuesday
  Yes,                                    !- Apply Wednesday
  Yes,                                    !- Apply Thursday
  Yes;                                    !- Apply Friday

OS:Schedule:Day,
  {8b72577f-5a4a-4b89-9e18-d596abf66d50}, !- Handle
  Medium Office Electric Equipment Weekdays Schedule, !- Name
  {84a55f73-203c-45f2-bf18-1c248c4ab063}, !- Schedule Type Limits Name
  ,                                       !- Interpolate to Timestep
  8,                                      !- Hour 1
  0,                                      !- Minute 1
  0.4,                                    !- Value Until Time 1
  12,                                     !- Hour 2
  0,                                      !- Minute 2
  0.9,                                    !- Value Until Time 2
  13,                                     !- Hour 3
  0,                                      !- Minute 3
  0.8,                                    !- Value Until Time 3
  17,                                     !- Hour 4
  0,                                      !- Minute 4
  0.9,                                    !- Value Until Time 4
  18,                                     !- Hour 5
  0,                                      !- Minute 5
  0.8,                                    !- Value Until Time 5
  20,                                     !- Hour 6
  0,                                      !- Minute 6
  0.6,                                    !- Value Until Time 6
  22,                                     !- Hour 7
  0,                                      !- Minute 7
  0.5,                                    !- Value Until Time 7
  24,                                     !- Hour 8
  0,                                      !- Minute 8
  0.4;                                    !- Value Until Time 8

OS:Schedule:Rule,
  {c584ce94-60e7-4e2b-8d4a-9ed1f7808b82}, !- Handle
  Medium Office Electric Equipment Schedule Saturday Rule, !- Name
  {2ac85caf-30fb-48a7-8b9b-2348bdeab57c}, !- Schedule Ruleset Name
  0,                                      !- Rule Order
  {c2740d18-32b9-4c48-9b1a-4a18b615a4d4}, !- Day Schedule Name
  ,                                       !- Apply Sunday
  ,                                       !- Apply Monday
  ,                                       !- Apply Tuesday
  ,                                       !- Apply Wednesday