
OS:Version,
  {1668eb50-b432-44c8-b21b-abaf83f67dab},  ! Handle
  0.8.0;                    ! Version Identifier

OS:SimulationControl,
  {4cd16143-71d9-47c2-80df-04db44c04364},  ! Handle
  Yes,                      ! Do Zone Sizing Calculation
  Yes,                      ! Do System Sizing Calculation
  ,                         ! Do Plant Sizing Calculation
  No,                       ! Run Simulation for Sizing Periods
  Yes;                      ! Run Simulation for Weather File Run Periods

OS:Timestep,
  {64749048-b1f0-4588-b044-8cfc8a4ae8e4},  ! Handle
  6;                        ! Number of Timesteps per Hour

OS:RunPeriod,
  {dc825d89-0612-45a9-93f9-838bebaf0b5d},  ! Handle
  OS:RunPeriod 1,           ! Name
  1,                        ! Begin Month
  1,                        ! Begin Day of Month
  12,                       ! End Month
  31,                       ! End Day of Month
  No,                       ! Use Weather File Holidays and Special Days
  No,                       ! Use Weather File Daylight Saving Period
  No,                       ! Apply Weekend Holiday Rule
  Yes,                      ! Use Weather File Rain Indicators
  Yes,                      ! Use Weather File Snow Indicators
  1;                        ! Number of Times Runperiod to be Repeated

OS:SurfaceConvectionAlgorithm:Inside,
  {e82fab4c-e300-4e0c-b5e1-627844697b8e},  ! Handle
  TARP;                     ! Algorithm

OS:SurfaceConvectionAlgorithm:Outside,
  {416a164d-05b3-4bc0-9dda-5657be00c2d2},  ! Handle
  DOE-2;                    ! Algorithm

OS:HeatBalanceAlgorithm,
  {d75ae0c6-c686-4473-bcb6-3badeda1ce2e},  ! Handle
  ConductionTransferFunction,  ! Algorithm
  200;                      ! Surface Temperature Upper Limit {F}

OS:ZoneAirHeatBalanceAlgorithm,
  {d2872db6-de69-47af-acd8-f6770e22ade9},  ! Handle
  AnalyticalSolution;       ! Algorithm

OS:ConvergenceLimits,
  {951f26f5-bedd-476a-93e5-8e94e24718d2};  ! Handle

OS:ShadowCalculation,
  {56cd49ed-d38a-4d6e-9368-9512e9791dbd},  ! Handle
  7,                        ! Calculation Frequency
  15000;                    ! Maximum Figures in Shadow Overlap Calculations

OS:Site,
  {ff17b11a-d863-4873-a55b-cb00e43b41f8},  ! Handle
  OS:Site 1,                ! Name
  41.77,                    ! Latitude {deg}
  -87.75,                   ! Longitude {deg}
  -6,                       ! Time Zone {hr}
  190,                      ! Elevation {m}
  ;                         ! Terrain

OS:Site:GroundTemperature:BuildingSurface,
  {b9189be5-6896-494e-916a-dca418c83ed3},  ! Handle
  19.527,                   ! January Ground Temperature {C}
  19.502,                   ! February Ground Temperature {C}
  19.536,                   ! March Ground Temperature {C}
  19.598,                   ! April Ground Temperature {C}
  20.002,                   ! May Ground Temperature {C}
  21.64,                    ! June Ground Temperature {C}
  22.225,                   ! July Ground Temperature {C}
  22.375,                   ! August Ground Temperature {C}
  21.449,                   ! September Ground Temperature {C}
  20.121,                   ! October Ground Temperature {C}
  19.802,                   ! November Ground Temperature {C}
  19.633;                   ! December Ground Temperature {C}

OS:Site:WaterMainsTemperature,
  {afc5c550-479c-4f68-858b-34ce2dfe21e1},  ! Handle
  Correlation,              ! Calculation Method
  ,                         ! Temperature Schedule Name
  9.69,                     ! Annual Average Outdoor Air Temperature {C}
  28.1;                     ! Maximum Difference In Monthly Average Outdoor Air Temperatures {deltaC}

OS:SizingPeriod:DesignDay,
  {6d1c1930-5cd5-414c-b915-703a350a056b},  ! Handle
  OS:SizingPeriod:DesignDay 1,  ! Name
  -20.6,                    ! Maximum Dry-Bulb Temperature {C}
  0,                        ! Daily Dry-Bulb Temperature Range {deltaC}
  -20.6,                    ! Humidity Indicating Conditions at Maximum Dry-Bulb {BasedOnField A3}
  99063,                    ! Barometric Pressure {Pa}
  4.9,                      ! Wind Speed {m/s}
  270,                      ! Wind Direction {deg}
  0,                        ! Sky Clearness
  0,                        ! Rain Indicator
  0,                        ! Snow Indicator
  21,                       ! Day of Month
  1,                        ! Month
  WinterDesignDay,          ! Day Type
  0,                        ! Daylight Saving Time Indicator
  WetBulb,                  ! Humidity Indicating Type
  ,                         ! Humidity Indicating Day Schedule Name
  DefaultMultipliers,       ! Dry-Bulb Temperature Range Modifier Type
  ,                         ! Dry-Bulb Temperature Range Modifier Schedule Name
  AshraeClearSky;           ! Solar Model Indicator

OS:SizingPeriod:DesignDay,
  {a8ed8ed0-2c11-4bdd-bde3-292c41d68240},  ! Handle
  OS:SizingPeriod:DesignDay 2,  ! Name
  33.2,                     ! Maximum Dry-Bulb Temperature {C}
  10.7,                     ! Daily Dry-Bulb Temperature Range {deltaC}
  23.8,                     ! Humidity Indicating Conditions at Maximum Dry-Bulb {BasedOnField A3}
  99063,                    ! Barometric Pressure {Pa}
  5.3,                      ! Wind Speed {m/s}
  230,                      ! Wind Direction {deg}
  1,                        ! Sky Clearness
  0,                        ! Rain Indicator
  0,                        ! Snow Indicator
  21,                       ! Day of Month
  7,                        ! Month
  SummerDesignDay,          ! Day Type
  0,                        ! Daylight Saving Time Indicator
  WetBulb,                  ! Humidity Indicating Type
  ,                         ! Humidity Indicating Day Schedule Name
  DefaultMultipliers,       ! Dry-Bulb Temperature Range Modifier Type
  ,                         ! Dry-Bulb Temperature Range Modifier Schedule Name
  AshraeClearSky;           ! Solar Model Indicator

OS:ScheduleTypeLimits,
  {11afae14-9b14-4453-98ed-cab7e8b131f7},  ! Handle
  Fraction,                 ! Name
  0,                        ! Lower Limit Value {BasedOnField A3}
  1,                        ! Upper Limit Value {BasedOnField A3}
  CONTINUOUS;               ! Numeric Type

OS:ScheduleTypeLimits,
  {d3df1851-67ff-4396-a0b9-33cf0bb20628},  ! Handle
  Any Number;               ! Name

OS:ScheduleTypeLimits,
  {5d2789f9-2fa3-48e8-ac5f-af808433c8ab},  ! Handle
  On/Off,                   ! Name
  0,                        ! Lower Limit Value {BasedOnField A3}
  1,                        ! Upper Limit Value {BasedOnField A3}
  DISCRETE;                 ! Numeric Type

OS:ScheduleTypeLimits,
  {e3633e42-25f3-4163-8870-30abcfb36774},  ! Handle
  Control Type,             ! Name
  0,                        ! Lower Limit Value {BasedOnField A3}
  4,                        ! Upper Limit Value {BasedOnField A3}
  DISCRETE;                 ! Numeric Type

OS:ScheduleTypeLimits,
  {7f287ba3-18d9-46a0-a792-4bdcbeae3592},  ! Handle
  Temperature,              ! Name
  -60,                      ! Lower Limit Value {BasedOnField A3}
  200,                      ! Upper Limit Value {BasedOnField A3}
  CONTINUOUS;               ! Numeric Type

OS:DefaultScheduleSet,
  {d8bef37c-beeb-452d-a4cb-ff06e448b8fc},  ! Handle
  Default Schedules,        ! Name
  ,                         ! Hours of Operation Schedule Name
  {3af77e7e-fec5-4bef-b583-58fd3a859d35},  ! Number of People Schedule Name
  {659ca4c8-7742-4b8e-89fe-4ac27e3c16f7},  ! People Activity Level Schedule Name
  {89adf23c-e30a-4890-8b84-3e1e424eac73},  ! Lighting Schedule Name
  {bf4d5e89-d579-4fea-a8ea-ae593e0e9eef},  ! Electric Equipment Schedule Name
  {cc895db1-25c5-4142-9b42-15a9f8e295ab},  ! Gas Equipment Schedule Name
  {5bcea417-907f-4018-93de-00e363931f35},  ! Hot Water Equipment Schedule Name
  {6271817a-3035-4f95-86a8-dc5d374d8d32},  ! Infiltration Schedule Name
  ,                         ! Steam Equipment Schedule Name
  ;                         ! Other Equipment Schedule Name

OS:Schedule:Ruleset,
  {3af77e7e-fec5-4bef-b583-58fd3a859d35},  ! Handle
  Medium Office Number of People Schedule,  ! Name
  ,                         ! Schedule Type Limits Name
  {63b7758d-dc14-45a3-9863-bc88345a144e},  ! Default Day Schedule Name
  {1a0837ad-a4d2-496a-991d-a90abb3920e7};  ! Summer Design Day Schedule Name

OS:Schedule:Day,
  {63b7758d-dc14-45a3-9863-bc88345a144e},  ! Handle
  Medium Office Number of People All Other Days Schedule,  ! Name
  {11afae14-9b14-4453-98ed-cab7e8b131f7},  ! Schedule Type Limits Name
  ,                         ! Interpolate to Timestep
  24,                       ! Hour 1
  0,                        ! Minute 1
  0;                        ! Value Until Time 1

OS:Schedule:Day,
  {0b0a3536-bc7c-49be-ad5b-2b13ed42b1b6},  ! Handle
  Medium Office Number of People Summer Design Day Schedule,  ! Name
  {11afae14-9b14-4453-98ed-cab7e8b131f7},  ! Schedule Type Limits Name
  ,                         ! Interpolate to Timestep
  6,                        ! Hour 1
  0,                        ! Minute 1
  0,                        ! Value Until Time 1
  22,                       ! Hour 2
  0,                        ! Minute 2
  1,                        ! Value Until Time 2
  24,                       ! Hour 3
  0,                        ! Minute 3
  0.05;                     ! Value Until Time 3

OS:Schedule:Day,
  {1a0837ad-a4d2-496a-991d-a90abb3920e7},  ! Handle
  OS:Schedule:Day 1,        ! Name
  {11afae14-9b14-4453-98ed-cab7e8b131f7},  ! Schedule Type Limits Name
  ,                         ! Interpolate to Timestep
  6,                        ! Hour 1
  0,                        ! Minute 1
  0,                        ! Value Until Time 1
  22,                       ! Hour 2
  0,                        ! Minute 2
  1,                        ! Value Until Time 2
  24,                       ! Hour 3
  0,                        ! Minute 3
  0.05;                     ! Value Until Time 3

OS:Schedule:Rule,
  {1bb979c9-990a-48a6-9456-fea7f6ba9f60},  ! Handle
  Medium Office Number of People Schedule Weekdays Rule,  ! Name
  {3af77e7e-fec5-4bef-b583-58fd3a859d35},  ! Schedule Ruleset Name
  1,                        ! Rule Order
  {3639cb5d-530f-45f6-9e21-3386a4419bc1},  ! Day Schedule Name
  ,                         ! Apply Sunday
  Yes,                      ! Apply Monday
  Yes,                      ! Apply Tuesday
  Yes,                      ! Apply Wednesday
  Yes,                      ! Apply Thursday
  Yes;                      ! Apply Friday

OS:Schedule:Day,
  {3639cb5d-530f-45f6-9e21-3386a4419bc1},  ! Handle
  Medium Office Number of People Weekdays Schedule,  ! Name
  {11afae14-9b14-4453-98ed-cab7e8b131f7},  ! Schedule Type Limits Name
  ,                         ! Interpolate to Timestep
  6,                        ! Hour 1
  0,                        ! Minute 1
  0,                        ! Value Until Time 1
  7,                        ! Hour 2
  0,                        ! Minute 2
  0.1,                      ! Value Until Time 2
  8,                        ! Hour 3
  0,                        ! Minute 3
  0.2,                      ! Value Until Time 3
  12,                       ! Hour 4
  0,                        ! Minute 4
  0.95,                     ! Value Until Time 4
  13,                       ! Hour 5
  0,                        ! Minute 5
  0.5,                      ! Value Until Time 5
  17,                       ! Hour 6
  0,                        ! Minute 6
  0.95,                     ! Value Until Time 6
  18,                       ! Hour 7
  0,                        ! Minute 7
  0.7,                      ! Value Until Time 7
  20,                       ! Hour 8
  0,                        ! Minute 8
  0.4,                      ! Value Until Time 8
  22,                       ! Hour 9
  0,                        ! Minute 9
  0.1,                      ! Value Until Time 9
  24,                       ! Hour 10
  0,                        ! Minute 10
  0.05;                     ! Value Until Time 10

OS:Schedule:Rule,
  {55e60443-1089-46ce-b07d-421834bbee98},  ! Handle
  Medium Office Number of People Schedule Saturday Rule,  ! Name
  {3af77e7e-fec5-4bef-b583-58fd3a859d35},  ! Schedule Ruleset Name
  0,                        ! Rule Order
  {43221f4f-ab55-4aec-939c-c33e98911d32},  ! Day Schedule Name
  ,                         ! Apply Sunday
  ,                         ! Apply Monday
  ,                         ! Apply Tuesday
  ,                         ! Apply Wednesday
  ,                         ! Apply Thursday
  ,                         ! Apply Friday
  Yes;                      ! Apply Saturday

OS:Schedule:Day,
  {43221f4f-ab55-4aec-939c-c33e98911d32},  ! Handle
  Medium Office Number of People Saturday Schedule,  ! Name
  {11afae14-9b14-4453-98ed-cab7e8b131f7},  ! Schedule Type Limits Name
  ,                         ! Interpolate to Timestep
  6,                        ! Hour 1
  0,                        ! Minute 1
  0,                        ! Value Until Time 1
  8,                        ! Hour 2
  0,                        ! Minute 2
  0.1,                      ! Value Until Time 2
  14,                       ! Hour 3
  0,                        ! Minute 3
  0.5,                      ! Value Until Time 3
  17,                       ! Hour 4
  0,                        ! Minute 4
  0.1,                      ! Value Until Time 4
  24,                       ! Hour 5
  0,                        ! Minute 5
  0;                        ! Value Until Time 5

OS:Schedule:Ruleset,
  {659ca4c8-7742-4b8e-89fe-4ac27e3c16f7},  ! Handle
  Medium Office People Activity Level Schedule,  ! Name
  ,                         ! Schedule Type Limits Name
  {2682a07a-cf1c-4b4c-af22-3c5d0981b311};  ! Default Day Schedule Name

OS:Schedule:Day,
  {2682a07a-cf1c-4b4c-af22-3c5d0981b311},  ! Handle
  Medium Office People Activity Level All Days Schedule,  ! Name
  {d3df1851-67ff-4396-a0b9-33cf0bb20628},  ! Schedule Type Limits Name
  ,                         ! Interpolate to Timestep
  24,                       ! Hour 1
  0,                        ! Minute 1
  120;                      ! Value Until Time 1

OS:Schedule:Ruleset,
  {89adf23c-e30a-4890-8b84-3e1e424eac73},  ! Handle
  Medium Office Lighting Schedule,  ! Name
  ,                         ! Schedule Type Limits Name
  {1e4001d7-7f3d-46b8-89f7-ed023e5ff9bf},  ! Default Day Schedule Name
  {7530ddc9-314b-4847-87ac-85534a37d697},  ! Summer Design Day Schedule Name
  {6c15d6de-6751-4d00-ba79-94e1ba5e96bd};  ! Winter Design Day Schedule Name

OS:Schedule:Day,
  {1e4001d7-7f3d-46b8-89f7-ed023e5ff9bf},  ! Handle
  Medium Office Lighting All Other Days Schedule,  ! Name
  {11afae14-9b14-4453-98ed-cab7e8b131f7},  ! Schedule Type Limits Name
  ,                         ! Interpolate to Timestep
  24,                       ! Hour 1
  0,                        ! Minute 1
  0.05;                     ! Value Until Time 1

OS:Schedule:Day,
  {6463d871-1763-4bac-9e4e-c65efe8910fa},  ! Handle
  Medium Office Lighting Summer Design Day Schedule,  ! Name
  {11afae14-9b14-4453-98ed-cab7e8b131f7},  ! Schedule Type Limits Name
  ,                         ! Interpolate to Timestep
  6,                        ! Hour 1
  0,                        ! Minute 1
  1,                        ! Value Until Time 1
  24,                       ! Hour 2
  0,                        ! Minute 2
  0;                        ! Value Until Time 2

OS:Schedule:Day,
  {7530ddc9-314b-4847-87ac-85534a37d697},  ! Handle
  OS:Schedule:Day 2,        ! Name
  {11afae14-9b14-4453-98ed-cab7e8b131f7},  ! Schedule Type Limits Name
  ,                         ! Interpolate to Timestep
  6,                        ! Hour 1
  0,                        ! Minute 1
  1,                        ! Value Until Time 1
  24,                       ! Hour 2
  0,                        ! Minute 2
  0;                        ! Value Until Time 2

OS:Schedule:Day,
  {01e1b3c0-bfed-48bd-a3fd-ef635ccfaeee},  ! Handle
  Medium Office Lighting Winter Design Day Schedule,  ! Name
  {11afae14-9b14-4453-98ed-cab7e8b131f7},  ! Schedule Type Limits Name
  ,                         ! Interpolate to Timestep
  24,                       ! Hour 1
  0,                        ! Minute 1
  0;                        ! Value Until Time 1

OS:Schedule:Day,
  {6c15d6de-6751-4d00-ba79-94e1ba5e96bd},  ! Handle
  OS:Schedule:Day 3,        ! Name
  {11afae14-9b14-4453-98ed-cab7e8b131f7},  ! Schedule Type Limits Name
  ,                         ! Interpolate to Timestep
  24,                       ! Hour 1
  0,                        ! Minute 1
  0;                        ! Value Until Time 1

OS:Schedule:Rule,
  {0c1ddf31-1ddc-46ff-8f28-7d1a336c9655},  ! Handle
  Medium Office Lighting Schedule Weekdays Rule,  ! Name
  {89adf23c-e30a-4890-8b84-3e1e424eac73},  ! Schedule Ruleset Name
  1,                        ! Rule Order
  {83e1cf8f-4cd0-4116-8af7-c44b8528f447},  ! Day Schedule Name
  ,                         ! Apply Sunday
  Yes,                      ! Apply Monday
  Yes,                      ! Apply Tuesday
  Yes,                      ! Apply Wednesday
  Yes,                      ! Apply Thursday
  Yes;                      ! Apply Friday

OS:Schedule:Day,
  {83e1cf8f-4cd0-4116-8af7-c44b8528f447},  ! Handle
  Medium Office Lighting Weekdays Schedule,  ! Name
  {11afae14-9b14-4453-98ed-cab7e8b131f7},  ! Schedule Type Limits Name
  ,                         ! Interpolate to Timestep
  5,                        ! Hour 1
  0,                        ! Minute 1
  0.05,                     ! Value Until Time 1
  7,                        ! Hour 2
  0,                        ! Minute 2
  0.1,                      ! Value Until Time 2
  8,                        ! Hour 3
  0,                        ! Minute 3
  0.3,                      ! Value Until Time 3
  17,                       ! Hour 4
  0,                        ! Minute 4
  0.9,                      ! Value Until Time 4
  18,                       ! Hour 5
  0,                        ! Minute 5
  0.7,                      ! Value Until Time 5
  20,                       ! Hour 6
  0,                        ! Minute 6
  0.5,                      ! Value Until Time 6
  22,                       ! Hour 7
  0,                        ! Minute 7
  0.3,                      ! Value Until Time 7
  23,                       ! Hour 8
  0,                        ! Minute 8
  0.1,                      ! Value Until Time 8
  24,                       ! Hour 9
  0,                        ! Minute 9
  0.05;                     ! Value Until Time 9

OS:Schedule:Rule,
  {c4e2a153-637f-403a-9e6d-c86aa163e132},  ! Handle
  Medium Office Lighting Schedule Saturday Rule,  ! Name
  {89adf23c-e30a-4890-8b84-3e1e424eac73},  ! Schedule Ruleset Name
  0,                        ! Rule Order
  {bdfec4ec-59cb-4583-9bd9-0648fea60b27},  ! Day Schedule Name
  ,                         ! Apply Sunday
  ,                         ! Apply Monday
  ,                         ! Apply Tuesday
  ,                         ! Apply Wednesday
  ,                         ! Apply Thursday
  ,                         ! Apply Friday
  Yes;                      ! Apply Saturday

OS:Schedule:Day,
  {bdfec4ec-59cb-4583-9bd9-0648fea60b27},  ! Handle
  Medium Office Lighting Saturday Schedule,  ! Name
  {11afae14-9b14-4453-98ed-cab7e8b131f7},  ! Schedule Type Limits Name
  ,                         ! Interpolate to Timestep
  6,                        ! Hour 1
  0,                        ! Minute 1
  0.05,                     ! Value Until Time 1
  8,                        ! Hour 2
  0,                        ! Minute 2
  0.1,                      ! Value Until Time 2
  14,                       ! Hour 3
  0,                        ! Minute 3
  0.5,                      ! Value Until Time 3
  17,                       ! Hour 4
  0,                        ! Minute 4
  0.15,                     ! Value Until Time 4
  24,                       ! Hour 5
  0,                        ! Minute 5
  0.05;                     ! Value Until Time 5

OS:Schedule:Ruleset,
  {bf4d5e89-d579-4fea-a8ea-ae593e0e9eef},  ! Handle
  Medium Office Electric Equipment Schedule,  ! Name
  ,                         ! Schedule Type Limits Name
  {f64905fd-1a5d-4186-9d0f-3de0d29b1713},  ! Default Day Schedule Name
  {a969e8f8-3cc0-4ea7-93ed-97f1ec7fc5a8},  ! Summer Design Day Schedule Name
  {83c5c81a-cf83-4aff-811f-78f70c9cc02a};  ! Winter Design Day Schedule Name

OS:Schedule:Day,
  {f64905fd-1a5d-4186-9d0f-3de0d29b1713},  ! Handle
  Medium Office Electric Equipment All Other Days Schedule,  ! Name
  {11afae14-9b14-4453-98ed-cab7e8b131f7},  ! Schedule Type Limits Name
  ,                         ! Interpolate to Timestep
  24,                       ! Hour 1
  0,                        ! Minute 1
  0.3;                      ! Value Until Time 1

OS:Schedule:Day,
  {aa440529-a73a-4458-864c-94c912de4485},  ! Handle
  Medium Office Electric Equipment Summer Design Day Schedule,  ! Name
  {11afae14-9b14-4453-98ed-cab7e8b131f7},  ! Schedule Type Limits Name
  ,                         ! Interpolate to Timestep
  6,                        ! Hour 1
  0,                        ! Minute 1
  1,                        ! Value Until Time 1
  24,                       ! Hour 2
  0,                        ! Minute 2
  0;                        ! Value Until Time 2

OS:Schedule:Day,
  {a969e8f8-3cc0-4ea7-93ed-97f1ec7fc5a8},  ! Handle
  OS:Schedule:Day 4,        ! Name
  {11afae14-9b14-4453-98ed-cab7e8b131f7},  ! Schedule Type Limits Name
  ,                         ! Interpolate to Timestep
  6,                        ! Hour 1
  0,                        ! Minute 1
  1,                        ! Value Until Time 1
  24,                       ! Hour 2
  0,                        ! Minute 2
  0;                        ! Value Until Time 2

OS:Schedule:Day,
  {c0ab3922-0b63-4529-935f-1724f1baefae},  ! Handle
  Medium Office Electric Equipment Winter Design Day Schedule,  ! Name
  {11afae14-9b14-4453-98ed-cab7e8b131f7},  ! Schedule Type Limits Name
  ,                         ! Interpolate to Timestep
  24,                       ! Hour 1
  0,                        ! Minute 1
  0;                        ! Value Until Time 1

OS:Schedule:Day,
  {83c5c81a-cf83-4aff-811f-78f70c9cc02a},  ! Handle
  OS:Schedule:Day 5,        ! Name
  {11afae14-9b14-4453-98ed-cab7e8b131f7},  ! Schedule Type Limits Name
  ,                         ! Interpolate to Timestep
  24,                       ! Hour 1
  0,                        ! Minute 1
  0;                        ! Value Until Time 1

OS:Schedule:Rule,
  {c8e90081-860c-440f-a3d6-57d6c56cfa0f},  ! Handle
  Medium Office Electric Equipment Schedule Weekdays Rule,  ! Name
  {bf4d5e89-d579-4fea-a8ea-ae593e0e9eef},  ! Schedule Ruleset Name
  1,                        ! Rule Order
  {fdf53196-410d-45ad-8a6a-67d6d70d1e13},  ! Day Schedule Name
  ,                         ! Apply Sunday
  Yes,                      ! Apply Monday
  Yes,                      ! Apply Tuesday
  Yes,                      ! Apply Wednesday
  Yes,                      ! Apply Thursday
  Yes;                      ! Apply Friday

OS:Schedule:Day,
  {fdf53196-410d-45ad-8a6a-67d6d70d1e13},  ! Handle
  Medium Office Electric Equipment Weekdays Schedule,  ! Name
  {11afae14-9b14-4453-98ed-cab7e8b131f7},  ! Schedule Type Limits Name
  ,                         ! Interpolate to Timestep
  8,                        ! Hour 1
  0,                        ! Minute 1
  0.4,                      ! Value Until Time 1
  12,                       ! Hour 2
  0,                        ! Minute 2
  0.9,                      ! Value Until Time 2
  13,                       ! Hour 3
  0,                        ! Minute 3
  0.8,                      ! Value Until Time 3
  17,                       ! Hour 4
  0,                        ! Minute 4
  0.9,                      ! Value Until Time 4
  18,                       ! Hour 5
  0,                        ! Minute 5
  0.8,                      ! Value Until Time 5
  20,                       ! Hour 6
  0,                        ! Minute 6
  0.6,                      ! Value Until Time 6
  22,                       ! Hour 7
  0,                        ! Minute 7
  0.5,                      ! Value Until Time 7
  24,                       ! Hour 8
  0,                        ! Minute 8
  0.4;                      ! Value Until Time 8

OS:Schedule:Rule,
  {8769f5f0-570b-4722-bee6-54403ff2a0d4},  ! Handle
  Medium Office Electric Equipment Schedule Saturday Rule,  ! Name
  {bf4d5e89-d579-4fea-a8ea-ae593e0e9eef},  ! Schedule Ruleset Name
  0,                        ! Rule Order
  {85e7cc2d-13ab-4e61-9604-81154483ed55},  ! Day Schedule Name
  ,                         ! Apply Sunday
  ,                         ! Apply Monday
  ,                         ! Apply Tuesday
  ,                         ! Apply Wednesday
  ,                         ! Apply Thursday
  ,                         ! Apply Friday
  Yes;                      ! Apply Saturday

OS:Schedule:Day,
  {85e7cc2d-13ab-4e61-9604-81154483ed55},  ! Handle
  Medium Office Electric Equipment Saturday Schedule,  ! Name
  {11afae14-9b14-4453-98ed-cab7e8b131f7},  ! Schedule Type Limits Name
  ,                         ! Interpolate to Timestep
  6,                        ! Hour 1
  0,                        ! Minute 1
  0.3,                      ! Value Until Time 1
  8,                        ! Hour 2
  0,                        ! Minute 2
  0.4,                      ! Value Until Time 2
  14,                       ! Hour 3
  0,                        ! Minute 3
  0.5,                      ! Value Until Time 3
  17,                       ! Hour 4
  0,                        ! Minute 4
  0.35,                     ! Value Until Time 4
  24,                       ! Hour 5
  0,                        ! Minute 5
  0.3;                      ! Value Until Time 5

OS:Schedule:Ruleset,
  {cc895db1-25c5-4142-9b42-15a9f8e295ab},  ! Handle
  Medium Office Gas Equipment Schedule,  ! Name
  ,                         ! Schedule Type Limits Name
  {378c2f78-425e-46cb-973e-cefabe8c94b8},  ! Default Day Schedule Name
  {11800c8c-cbcf-4167-aed5-74036ac1166d},  ! Summer Design Day Schedule Name
  {d6e7e286-fda5-4172-9bf0-252aee3a50cc};  ! Winter Design Day Schedule Name

OS:Schedule:Day,
  {378c2f78-425e-46cb-973e-cefabe8c94b8},  ! Handle
  Medium Office Gas Equipment All Other Days Schedule,  ! Name
  {11afae14-9b14-4453-98ed-cab7e8b131f7},  ! Schedule Type Limits Name
  ,                         ! Interpolate to Timestep
  24,                       ! Hour 1
  0,                        ! Minute 1
  0.3;                      ! Value Until Time 1

OS:Schedule:Day,
  {a6769a0e-51d1-4c3f-9d80-0b4415fa3985},  ! Handle
  Medium Office Gas Equipment Summer Design Day Schedule,  ! Name
  {11afae14-9b14-4453-98ed-cab7e8b131f7},  ! Schedule Type Limits Name
  ,                         ! Interpolate to Timestep
  6,                        ! Hour 1
  0,                        ! Minute 1
  1,                        ! Value Until Time 1
  24,                       ! Hour 2
  0,                        ! Minute 2
  0;                        ! Value Until Time 2

OS:Schedule:Day,
  {11800c8c-cbcf-4167-aed5-74036ac1166d},  ! Handle
  OS:Schedule:Day 6,        ! Name
  {11afae14-9b14-4453-98ed-cab7e8b131f7},  ! Schedule Type Limits Name
  ,                         ! Interpolate to Timestep
  6,                        ! Hour 1
  0,                        ! Minute 1
  1,                        ! Value Until Time 1
  24,                       ! Hour 2
  0,                        ! Minute 2
  0;                        ! Value Until Time 2

OS:Schedule:Day,
  {2ef07083-883d-44b0-8e28-4317ef0b88df},  ! Handle
  Medium Office Gas Equipment Winter Design Day Schedule,  ! Name
  {11afae14-9b14-4453-98ed-cab7e8b131f7},  ! Schedule Type Limits Name
  ,                         ! Interpolate to Timestep
  24,                       ! Hour 1
  0,                        ! Minute 1
  0;                        ! Value Until Time 1

OS:Schedule:Day,
  {d6e7e286-fda5-4172-9bf0-252aee3a50cc},  ! Handle
  OS:Schedule:Day 7,        ! Name
  {11afae14-9b14-4453-98ed-cab7e8b131f7},  ! Schedule Type Limits Name
  ,                         ! Interpolate to Timestep
  24,                       ! Hour 1
  0,                        ! Minute 1
  0;                        ! Value Until Time 1

OS:Schedule:Rule,
  {d19f91b3-b35a-48ce-85cd-758e661d38af},  ! Handle
  Medium Office Gas Equipment Schedule Weekdays Rule,  ! Name
  {cc895db1-25c5-4142-9b42-15a9f8e295ab},  ! Schedule Ruleset Name
  1,                        ! Rule Order
  {4456542b-65c2-42c4-a471-814d0efd092b},  ! Day Schedule Name
  ,                         ! Apply Sunday
  Yes,                      ! Apply Monday
  Yes,                      ! Apply Tuesday
  Yes,                      ! Apply Wednesday
  Yes,                      ! Apply Thursday
  Yes;                      ! Apply Friday

OS:Schedule:Day,
  {4456542b-65c2-42c4-a471-814d0efd092b},  ! Handle
  Medium Office Gas Equipment Weekdays Schedule,  ! Name
  {11afae14-9b14-4453-98ed-cab7e8b131f7},  ! Schedule Type Limits Name
  ,                         ! Interpolate to Timestep
  8,                        ! Hour 1
  0,                        ! Minute 1
  0.4,                      ! Value Until Time 1
  12,                       ! Hour 2
  0,                        ! Minute 2
  0.9,                      ! Value Until Time 2
  13,                       ! Hour 3
  0,                        ! Minute 3
  0.8,                      ! Value Until Time 3
  17,                       ! Hour 4
  0,                        ! Minute 4
  0.9,                      ! Value Until Time 4
  18,                       ! Hour 5
  0,                        ! Minute 5
  0.8,                      ! Value Until Time 5
  20,                       ! Hour 6