
OS:Version,
  {5d722007-a565-4220-95ee-676596da56d3}, !- Handle
  1.10.4;                                 !- Version Identifier

OS:SimulationControl,
  {6c006357-9997-4b13-94c0-02a63d1e9e57}, !- Handle
  Yes,                                    !- Do Zone Sizing Calculation
  Yes,                                    !- Do System Sizing Calculation
  ,                                       !- Do Plant Sizing Calculation
  No,                                     !- Run Simulation for Sizing Periods
  Yes;                                    !- Run Simulation for Weather File Run Periods

OS:Timestep,
  {4d5c406b-90c6-47f0-87d1-fd89305def2a}, !- Handle
  6;                                      !- Number of Timesteps per Hour

OS:RunPeriod,
  {9f773730-6e72-458a-be23-de35a51233a8}, !- Handle
  Run Period 1,                           !- Name
  1,                                      !- Begin Month
  1,                                      !- Begin Day of Month
  12,                                     !- End Month
  31,                                     !- End Day of Month
  No,                                     !- Use Weather File Holidays and Special Days
  No,                                     !- Use Weather File Daylight Saving Period
  No,                                     !- Apply Weekend Holiday Rule
  Yes,                                    !- Use Weather File Rain Indicators
  Yes,                                    !- Use Weather File Snow Indicators
  1;                                      !- Number of Times Runperiod to be Repeated

OS:SurfaceConvectionAlgorithm:Inside,
  {d74f196f-2096-4704-b28a-8ad87a0cd20a}, !- Handle
  TARP;                                   !- Algorithm

OS:SurfaceConvectionAlgorithm:Outside,
  {801ef425-a903-41d1-8d8d-1c322ed18f19}, !- Handle
  DOE-2;                                  !- Algorithm

OS:HeatBalanceAlgorithm,
  {3803fb46-56e1-481c-b9dc-96ad26f7ab29}, !- Handle
  ConductionTransferFunction,             !- Algorithm
  200;                                    !- Surface Temperature Upper Limit {C}

OS:ZoneAirHeatBalanceAlgorithm,
  {652de101-e2a9-49ae-ae8c-4f100cc70786}, !- Handle
  ThirdOrderBackwardDifference;           !- Algorithm

OS:ConvergenceLimits,
  {5fe76be7-9a0a-493a-a82a-2397f4c57419}, !- Handle
  1;                                      !- Minimum System Timestep {minutes}

OS:ShadowCalculation,
  {91f58969-a666-4199-8eb2-7c3a4fa2b4a5}, !- Handle
  20,                                     !- Calculation Frequency
  15000;                                  !- Maximum Figures in Shadow Overlap Calculations

OS:Site,
  {abe63871-a5a0-4907-9548-122dcf7057be}, !- Handle
  Site 1,                                 !- Name
  41.77,                                  !- Latitude {deg}
  -87.75,                                 !- Longitude {deg}
  -6,                                     !- Time Zone {hr}
  190,                                    !- Elevation {m}
  ;                                       !- Terrain

OS:Site:GroundTemperature:BuildingSurface,
  {2a836f40-8c05-44ea-9421-b6c031a21a63}, !- Handle
  19.527,                                 !- January Ground Temperature {C}
  19.502,                                 !- February Ground Temperature {C}
  19.536,                                 !- March Ground Temperature {C}
  19.598,                                 !- April Ground Temperature {C}
  20.002,                                 !- May Ground Temperature {C}
  21.64,                                  !- June Ground Temperature {C}
  22.225,                                 !- July Ground Temperature {C}
  22.375,                                 !- August Ground Temperature {C}
  21.449,                                 !- September Ground Temperature {C}
  20.121,                                 !- October Ground Temperature {C}
  19.802,                                 !- November Ground Temperature {C}
  19.633;                                 !- December Ground Temperature {C}

OS:Site:WaterMainsTemperature,
  {9bc6cfb5-3481-4b2f-bf4a-def437c66d8c}, !- Handle
  Correlation,                            !- Calculation Method
  ,                                       !- Temperature Schedule Name
  9.69,                                   !- Annual Average Outdoor Air Temperature {C}
  28.1;                                   !- Maximum Difference In Monthly Average Outdoor Air Temperatures {deltaC}

OS:SizingPeriod:DesignDay,
  {9ae8f39b-af77-4711-ba34-e56126b32c69}, !- Handle
  Sizing Period Design Day 1,             !- Name
  -20.6,                                  !- Maximum Dry-Bulb Temperature {C}
  0,                                      !- Daily Dry-Bulb Temperature Range {deltaC}
  -20.6,                                  !- Humidity Indicating Conditions at Maximum Dry-Bulb
  99063,                                  !- Barometric Pressure {Pa}
  4.9,                                    !- Wind Speed {m/s}
  270,                                    !- Wind Direction {deg}
  0,                                      !- Sky Clearness
  0,                                      !- Rain Indicator
  0,                                      !- Snow Indicator
  21,                                     !- Day of Month
  1,                                      !- Month
  WinterDesignDay,                        !- Day Type
  0,                                      !- Daylight Saving Time Indicator
  WetBulb,                                !- Humidity Indicating Type
  ,                                       !- Humidity Indicating Day Schedule Name
  DefaultMultipliers,                     !- Dry-Bulb Temperature Range Modifier Type
  ,                                       !- Dry-Bulb Temperature Range Modifier Schedule Name
  AshraeClearSky;                         !- Solar Model Indicator

OS:SizingPeriod:DesignDay,
  {e7a95353-b6e9-4c37-9e3a-e3cc3f72c2fa}, !- Handle
  Sizing Period Design Day 2,             !- Name
  33.2,                                   !- Maximum Dry-Bulb Temperature {C}
  10.7,                                   !- Daily Dry-Bulb Temperature Range {deltaC}
  23.8,                                   !- Humidity Indicating Conditions at Maximum Dry-Bulb
  99063,                                  !- Barometric Pressure {Pa}
  5.3,                                    !- Wind Speed {m/s}
  230,                                    !- Wind Direction {deg}
  1,                                      !- Sky Clearness
  0,                                      !- Rain Indicator
  0,                                      !- Snow Indicator
  21,                                     !- Day of Month
  7,                                      !- Month
  SummerDesignDay,                        !- Day Type
  0,                                      !- Daylight Saving Time Indicator
  WetBulb,                                !- Humidity Indicating Type
  ,                                       !- Humidity Indicating Day Schedule Name
  DefaultMultipliers,                     !- Dry-Bulb Temperature Range Modifier Type
  ,                                       !- Dry-Bulb Temperature Range Modifier Schedule Name
  AshraeClearSky;                         !- Solar Model Indicator

OS:ScheduleTypeLimits,
  {df6207ab-081e-4a6b-91de-77e9fc44cfe5}, !- Handle
  Temperature,                            !- Name
  -60,                                    !- Lower Limit Value
  200,                                    !- Upper Limit Value
  CONTINUOUS,                             !- Numeric Type
  Temperature;                            !- Unit Type

OS:DefaultScheduleSet,
  {5522416a-2a69-4caf-b32a-bd48ee34f31e}, !- Handle
  Default Schedules,                      !- Name
  ,                                       !- Hours of Operation Schedule Name
  {f83b01af-f88d-4fe3-85d8-67e6779c307d}, !- Number of People Schedule Name
  {62fb8c47-a943-470b-902e-1a825eb74a9f}, !- People Activity Level Schedule Name
  {a8ef0943-9fa5-46e5-b4c3-ad3a3785215f}, !- Lighting Schedule Name
  {257e8491-fb34-4792-be27-874e5f6d29dc}, !- Electric Equipment Schedule Name
  {5943c2ce-19e3-4004-afc2-848fab4478b7}, !- Gas Equipment Schedule Name
  {11f8f110-9e2e-4d7f-8d11-e1318099f669}, !- Hot Water Equipment Schedule Name
  {43cd3989-6e41-4aeb-9ba3-4669759e4cae}, !- Infiltration Schedule Name
  ,                                       !- Steam Equipment Schedule Name
  ;                                       !- Other Equipment Schedule Name

OS:Schedule:Ruleset,
  {f83b01af-f88d-4fe3-85d8-67e6779c307d}, !- Handle
  Medium Office Number of People Schedule, !- Name
  {d6dedb0c-5f2c-4234-bf5d-612392f4eab7}, !- Schedule Type Limits Name
  {d7a30ba1-e575-46e1-8d99-6d5dc2040dde}, !- Default Day Schedule Name
  {d856c544-1db3-49ae-8e31-30201d44aac7}; !- Summer Design Day Schedule Name

OS:Schedule:Day,
  {d7a30ba1-e575-46e1-8d99-6d5dc2040dde}, !- Handle
  Medium Office Number of People All Other Days Schedule, !- Name
  {d6dedb0c-5f2c-4234-bf5d-612392f4eab7}, !- Schedule Type Limits Name
  ,                                       !- Interpolate to Timestep
  24,                                     !- Hour 1
  0,                                      !- Minute 1
  0;                                      !- Value Until Time 1

OS:Schedule:Day,
  {aef63eaf-bf08-4ec5-9d9b-19b8c018b8f6}, !- Handle
  Medium Office Number of People Summer Design Day Schedule, !- Name
  ,                                       !- Schedule Type Limits Name
  ,                                       !- Interpolate to Timestep
  6,                                      !- Hour 1
  0,                                      !- Minute 1
  0,                                      !- Value Until Time 1
  22,                                     !- Hour 2
  0,                                      !- Minute 2
  1,                                      !- Value Until Time 2
  24,                                     !- Hour 3
  0,                                      !- Minute 3
  0.05;                                   !- Value Until Time 3

OS:Schedule:Day,
  {d856c544-1db3-49ae-8e31-30201d44aac7}, !- Handle
  Medium Office Number of People Summer Design Day Schedule 1, !- Name
  {d6dedb0c-5f2c-4234-bf5d-612392f4eab7}, !- Schedule Type Limits Name
  ,                                       !- Interpolate to Timestep
  6,                                      !- Hour 1
  0,                                      !- Minute 1
  0,                                      !- Value Until Time 1
  22,                                     !- Hour 2
  0,                                      !- Minute 2
  1,                                      !- Value Until Time 2
  24,                                     !- Hour 3
  0,                                      !- Minute 3
  0.05;                                   !- Value Until Time 3

OS:Schedule:Rule,
  {fda69179-4a96-4717-abbf-c5f7a8c2e759}, !- Handle
  Medium Office Number of People Schedule Weekdays Rule, !- Name
  {f83b01af-f88d-4fe3-85d8-67e6779c307d}, !- Schedule Ruleset Name
  1,                                      !- Rule Order
  {ecfc0b3f-cb63-45be-916a-bfac862b7ad3}, !- Day Schedule Name
  ,                                       !- Apply Sunday
  Yes,                                    !- Apply Monday
  Yes,                                    !- Apply Tuesday
  Yes,                                    !- Apply Wednesday
  Yes,                                    !- Apply Thursday
  Yes;                                    !- Apply Friday

OS:Schedule:Day,
  {ecfc0b3f-cb63-45be-916a-bfac862b7ad3}, !- Handle
  Medium Office Number of People Weekdays Schedule, !- Name
  {d6dedb0c-5f2c-4234-bf5d-612392f4eab7}, !- Schedule Type Limits Name
  ,                                       !- Interpolate to Timestep
  6,                                      !- Hour 1
  0,                                      !- Minute 1
  0,                                      !- Value Until Time 1
  7,                                      !- Hour 2
  0,                                      !- Minute 2
  0.1,                                    !- Value Until Time 2
  8,                                      !- Hour 3
  0,                                      !- Minute 3
  0.2,                                    !- Value Until Time 3
  12,                                     !- Hour 4
  0,                                      !- Minute 4
  0.95,                                   !- Value Until Time 4
  13,                                     !- Hour 5
  0,                                      !- Minute 5
  0.5,                                    !- Value Until Time 5
  17,                                     !- Hour 6
  0,                                      !- Minute 6
  0.95,                                   !- Value Until Time 6
  18,                                     !- Hour 7
  0,                                      !- Minute 7
  0.7,                                    !- Value Until Time 7
  20,                                     !- Hour 8
  0,                                      !- Minute 8
  0.4,                                    !- Value Until Time 8
  22,                                     !- Hour 9
  0,                                      !- Minute 9
  0.1,                                    !- Value Until Time 9
  24,                                     !- Hour 10
  0,                                      !- Minute 10
  0.05;                                   !- Value Until Time 10

OS:Schedule:Rule,
  {0df93eff-47b5-4e6f-a281-d06276b0ebe3}, !- Handle
  Medium Office Number of People Schedule Saturday Rule, !- Name
  {f83b01af-f88d-4fe3-85d8-67e6779c307d}, !- Schedule Ruleset Name
  0,                                      !- Rule Order
  {72ab3c01-929e-4a98-8c75-daa4fc8475a2}, !- Day Schedule Name
  ,                                       !- Apply Sunday
  ,                                       !- Apply Monday
  ,                                       !- Apply Tuesday
  ,                                       !- Apply Wednesday
  ,                                       !- Apply Thursday
  ,                                       !- Apply Friday
  Yes;                                    !- Apply Saturday

OS:Schedule:Day,
  {72ab3c01-929e-4a98-8c75-daa4fc8475a2}, !- Handle
  Medium Office Number of People Saturday Schedule, !- Name
  {d6dedb0c-5f2c-4234-bf5d-612392f4eab7}, !- Schedule Type Limits Name
  ,                                       !- Interpolate to Timestep
  6,                                      !- Hour 1
  0,                                      !- Minute 1
  0,                                      !- Value Until Time 1
  8,                                      !- Hour 2
  0,                                      !- Minute 2
  0.1,                                    !- Value Until Time 2
  14,                                     !- Hour 3
  0,                                      !- Minute 3
  0.5,                                    !- Value Until Time 3
  17,                                     !- Hour 4
  0,                                      !- Minute 4
  0.1,                                    !- Value Until Time 4
  24,                                     !- Hour 5
  0,                                      !- Minute 5
  0;                                      !- Value Until Time 5

OS:ScheduleTypeLimits,
  {d6dedb0c-5f2c-4234-bf5d-612392f4eab7}, !- Handle
  Fractional,                             !- Name
  0,                                      !- Lower Limit Value
  1,                                      !- Upper Limit Value
  Continuous;                             !- Numeric Type

OS:Schedule:Ruleset,
  {62fb8c47-a943-470b-902e-1a825eb74a9f}, !- Handle
  Medium Office People Activity Level Schedule, !- Name
  {7b22aa29-127f-4b06-a89c-45fb4526610e}, !- Schedule Type Limits Name
  {59d3f4f3-b2fe-4444-8064-810468731c79}; !- Default Day Schedule Name

OS:Schedule:Day,
  {59d3f4f3-b2fe-4444-8064-810468731c79}, !- Handle
  Medium Office People Activity Level All Days Schedule, !- Name
  {7b22aa29-127f-4b06-a89c-45fb4526610e}, !- Schedule Type Limits Name
  ,                                       !- Interpolate to Timestep
  24,                                     !- Hour 1
  0,                                      !- Minute 1
  120;                                    !- Value Until Time 1

OS:ScheduleTypeLimits,
  {7b22aa29-127f-4b06-a89c-45fb4526610e}, !- Handle
  ActivityLevel,                          !- Name
  0,                                      !- Lower Limit Value
  ,                                       !- Upper Limit Value
  Continuous,                             !- Numeric Type
  ActivityLevel;                          !- Unit Type

OS:Schedule:Ruleset,
  {a8ef0943-9fa5-46e5-b4c3-ad3a3785215f}, !- Handle
  Medium Office Lighting Schedule,        !- Name
  {d6dedb0c-5f2c-4234-bf5d-612392f4eab7}, !- Schedule Type Limits Name
  {a518cb9a-923e-4686-8028-505fd0e49b35}, !- Default Day Schedule Name
  {b040a51f-9908-4286-a2a1-2f59ff9f270e}, !- Summer Design Day Schedule Name
  {d588a81f-b6ce-4652-8c33-91931c456e43}; !- Winter Design Day Schedule Name

OS:Schedule:Day,
  {a518cb9a-923e-4686-8028-505fd0e49b35}, !- Handle
  Medium Office Lighting All Other Days Schedule, !- Name
  {d6dedb0c-5f2c-4234-bf5d-612392f4eab7}, !- Schedule Type Limits Name
  ,                                       !- Interpolate to Timestep
  24,                                     !- Hour 1
  0,                                      !- Minute 1
  0.05;                                   !- Value Until Time 1

OS:Schedule:Day,
  {7e4d50a2-6c59-4192-a05f-2cebfa2c12aa}, !- Handle
  Medium Office Lighting Summer Design Day Schedule, !- Name
  ,                                       !- Schedule Type Limits Name
  ,                                       !- Interpolate to Timestep
  6,                                      !- Hour 1
  0,                                      !- Minute 1
  1,                                      !- Value Until Time 1
  24,                                     !- Hour 2
  0,                                      !- Minute 2
  0;                                      !- Value Until Time 2

OS:Schedule:Day,
  {b040a51f-9908-4286-a2a1-2f59ff9f270e}, !- Handle
  Medium Office Lighting Summer Design Day Schedule 1, !- Name
  {d6dedb0c-5f2c-4234-bf5d-612392f4eab7}, !- Schedule Type Limits Name
  ,                                       !- Interpolate to Timestep
  6,                                      !- Hour 1
  0,                                      !- Minute 1
  1,                                      !- Value Until Time 1
  24,                                     !- Hour 2
  0,                                      !- Minute 2
  0;                                      !- Value Until Time 2

OS:Schedule:Day,
  {c232aa28-800f-49a1-a535-3832cba7e5bf}, !- Handle
  Medium Office Lighting Winter Design Day Schedule, !- Name
  ,                                       !- Schedule Type Limits Name
  ,                                       !- Interpolate to Timestep
  24,                                     !- Hour 1
  0,                                      !- Minute 1
  0;                                      !- Value Until Time 1

OS:Schedule:Day,
  {d588a81f-b6ce-4652-8c33-91931c456e43}, !- Handle
  Medium Office Lighting Winter Design Day Schedule 1, !- Name
  {d6dedb0c-5f2c-4234-bf5d-612392f4eab7}, !- Schedule Type Limits Name
  ,                                       !- Interpolate to Timestep
  24,                                     !- Hour 1
  0,                                      !- Minute 1
  0;                                      !- Value Until Time 1

OS:Schedule:Rule,
  {2bbab7ab-eff1-4851-9b54-106adb6d2de3}, !- Handle
  Medium Office Lighting Schedule Weekdays Rule, !- Name
  {a8ef0943-9fa5-46e5-b4c3-ad3a3785215f}, !- Schedule Ruleset Name
  1,                                      !- Rule Order
  {1d10c863-6d3d-4307-89ec-bc365f120bc3}, !- Day Schedule Name
  ,                                       !- Apply Sunday
  Yes,                                    !- Apply Monday
  Yes,                                    !- Apply Tuesday
  Yes,                                    !- Apply Wednesday
  Yes,                                    !- Apply Thursday
  Yes;                                    !- Apply Friday

OS:Schedule:Day,
  {1d10c863-6d3d-4307-89ec-bc365f120bc3}, !- Handle
  Medium Office Lighting Weekdays Schedule, !- Name
  {d6dedb0c-5f2c-4234-bf5d-612392f4eab7}, !- Schedule Type Limits Name
  ,                                       !- Interpolate to Timestep
  5,                                      !- Hour 1
  0,                                      !- Minute 1
  0.05,                                   !- Value Until Time 1
  7,                                      !- Hour 2
  0,                                      !- Minute 2
  0.1,                                    !- Value Until Time 2
  8,                                      !- Hour 3
  0,                                      !- Minute 3
  0.3,                                    !- Value Until Time 3
  17,                                     !- Hour 4
  0,                                      !- Minute 4
  0.9,                                    !- Value Until Time 4
  18,                                     !- Hour 5
  0,                                      !- Minute 5
  0.7,                                    !- Value Until Time 5
  20,                                     !- Hour 6
  0,                                      !- Minute 6
  0.5,                                    !- Value Until Time 6
  22,                                     !- Hour 7
  0,                                      !- Minute 7
  0.3,                                    !- Value Until Time 7
  23,                                     !- Hour 8
  0,                                      !- Minute 8
  0.1,                                    !- Value Until Time 8
  24,                                     !- Hour 9
  0,                                      !- Minute 9
  0.05;                                   !- Value Until Time 9

OS:Schedule:Rule,
  {08d44411-d8dd-4200-8c5c-dae7954612de}, !- Handle
  Medium Office Lighting Schedule Saturday Rule, !- Name
  {a8ef0943-9fa5-46e5-b4c3-ad3a3785215f}, !- Schedule Ruleset Name
  0,                                      !- Rule Order
  {56cfade7-bd48-4768-bba8-a84d7afa1911}, !- Day Schedule Name
  ,                                       !- Apply Sunday
  ,                                       !- Apply Monday
  ,                                       !- Apply Tuesday
  ,                                       !- Apply Wednesday
  ,                                       !- Apply Thursday
  ,                                       !- Apply Friday
  Yes;                                    !- Apply Saturday

OS:Schedule:Day,
  {56cfade7-bd48-4768-bba8-a84d7afa1911}, !- Handle
  Medium Office Lighting Saturday Schedule, !- Name
  {d6dedb0c-5f2c-4234-bf5d-612392f4eab7}, !- Schedule Type Limits Name
  ,                                       !- Interpolate to Timestep
  6,                                      !- Hour 1
  0,                                      !- Minute 1
  0.05,                                   !- Value Until Time 1
  8,                                      !- Hour 2
  0,                                      !- Minute 2
  0.1,                                    !- Value Until Time 2
  14,                                     !- Hour 3
  0,                                      !- Minute 3
  0.5,                                    !- Value Until Time 3
  17,                                     !- Hour 4
  0,                                      !- Minute 4
  0.15,                                   !- Value Until Time 4
  24,                                     !- Hour 5
  0,                                      !- Minute 5
  0.05;                                   !- Value Until Time 5

OS:Schedule:Ruleset,
  {257e8491-fb34-4792-be27-874e5f6d29dc}, !- Handle
  Medium Office Electric Equipment Schedule, !- Name
  {d6dedb0c-5f2c-4234-bf5d-612392f4eab7}, !- Schedule Type Limits Name
  {37c3ccb0-8748-4503-b988-036bfce0b314}, !- Default Day Schedule Name
  {3d042bec-c5fd-4a55-b7fa-8337c7e38f92}, !- Summer Design Day Schedule Name
  {a3a61243-bdbf-4f5d-ae7e-fdb536c4cb63}; !- Winter Design Day Schedule Name

OS:Schedule:Day,
  {37c3ccb0-8748-4503-b988-036bfce0b314}, !- Handle
  Medium Office Electric Equipment All Other Days Schedule, !- Name
  {d6dedb0c-5f2c-4234-bf5d-612392f4eab7}, !- Schedule Type Limits Name
  ,                                       !- Interpolate to Timestep
  24,                                     !- Hour 1
  0,                                      !- Minute 1
  0.3;                                    !- Value Until Time 1

OS:Schedule:Day,
  {c57a2d5c-0963-4129-a245-bc2933c5d2a7}, !- Handle
  Medium Office Electric Equipment Summer Design Day Schedule, !- Name
  ,                                       !- Schedule Type Limits Name
  ,                                       !- Interpolate to Timestep
  6,                                      !- Hour 1
  0,                                      !- Minute 1
  1,                                      !- Value Until Time 1
  24,                                     !- Hour 2
  0,                                      !- Minute 2
  0;                                      !- Value Until Time 2

OS:Schedule:Day,
  {3d042bec-c5fd-4a55-b7fa-8337c7e38f92}, !- Handle
  Medium Office Electric Equipment Summer Design Day Schedule 1, !- Name
  {d6dedb0c-5f2c-4234-bf5d-612392f4eab7}, !- Schedule Type Limits Name
  ,                                       !- Interpolate to Timestep
  6,                                      !- Hour 1
  0,                                      !- Minute 1
  1,                                      !- Value Until Time 1
  24,                                     !- Hour 2
  0,                                      !- Minute 2
  0;                                      !- Value Until Time 2

OS:Schedule:Day,
  {fa46994a-681e-4b36-84da-2dd7728fdb04}, !- Handle
  Medium Office Electric Equipment Winter Design Day Schedule, !- Name
  ,                                       !- Schedule Type Limits Name
  ,                                       !- Interpolate to Timestep
  24,                                     !- Hour 1
  0,                                      !- Minute 1
  0;                                      !- Value Until Time 1

OS:Schedule:Day,
  {a3a61243-bdbf-4f5d-ae7e-fdb536c4cb63}, !- Handle
  Medium Office Electric Equipment Winter Design Day Schedule 1, !- Name
  {d6dedb0c-5f2c-4234-bf5d-612392f4eab7}, !- Schedule Type Limits Name
  ,                                       !- Interpolate to Timestep
  24,                                     !- Hour 1
  0,                                      !- Minute 1
  0;                                      !- Value Until Time 1

OS:Schedule:Rule,
  {03b921a4-c9a8-4f9c-ad65-3c868b3be41e}, !- Handle
  Medium Office Electric Equipment Schedule Weekdays Rule, !- Name
  {257e8491-fb34-4792-be27-874e5f6d29dc}, !- Schedule Ruleset Name
  1,                                      !- Rule Order
  {6015cc48-5ddb-4296-a54a-18b23a1ea414}, !- Day Schedule Name
  ,                                       !- Apply Sunday
  Yes,                                    !- Apply Monday
  Yes,                                    !- Apply Tuesday
  Yes,                                    !- Apply Wednesday
  Yes,                                    !- Apply Thursday
  Yes;                                    !- Apply Friday

OS:Schedule:Day,
  {6015cc48-5ddb-4296-a54a-18b23a1ea414}, !- Handle
  Medium Office Electric Equipment Weekdays Schedule, !- Name
  {d6dedb0c-5f2c-4234-bf5d-612392f4eab7}, !- Schedule Type Limits Name
  ,                                       !- Interpolate to Timestep
  8,                                      !- Hour 1
  0,                                      !- Minute 1
  0.4,                                    !- Value Until Time 1
  12,                                     !- Hour 2
  0,                                      !- Minute 2
  0.9,                                    !- Value Until Time 2
  13,                                     !- Hour 3
  0,                                      !- Minute 3
  0.8,                                    !- Value Until Time 3
  17,                                     !- Hour 4
  0,                                      !- Minute 4
  0.9,                                    !- Value Until Time 4
  18,                                     !- Hour 5
  0,                                      !- Minute 5
  0.8,                                    !- Value Until Time 5
  20,                                     !- Hour 6
  0,                                      !- Minute 6
  0.6,                                    !- Value Until Time 6
  22,                                     !- Hour 7
  0,                                      !- Minute 7
  0.5,                                    !- Value Until Time 7
  24,                                     !- Hour 8
  0,                                      !- Minute 8
  0.4;                                    !- Value Until Time 8

OS:Schedule:Rule,
  {69d12ccb-8d84-45c1-bfac-51885b39acf6}, !- Handle
  Medium Office Electric Equipment Schedule Saturday Rule, !- Name
  {257e8491-fb34-4792-be27-874e5f6d29dc}, !- Schedule Ruleset Name
  0,                                      !- Rule Order
  {580d94c2-5a4a-4bb1-9599-2a4890bdfd24}, !- Day Schedule Name
  ,                                       !- Apply Sunday
  ,                                       !- Apply Monday
  ,                                       !- Apply Tuesday
  ,                                       !- Apply Wednesday
  ,                                       !- Apply Thursday