
OS:Version,
  {cf811540-2a67-4c99-bc4e-1a68e084ca1e}, !- Handle
  0.11.3;                                 !- Version Identifier

OS:SimulationControl,
  {6c0f6a2d-dbcf-4b15-8fba-2c8544ba9fe5}, !- Handle
  Yes,                                    !- Do Zone Sizing Calculation
  Yes,                                    !- Do System Sizing Calculation
  ,                                       !- Do Plant Sizing Calculation
  No,                                     !- Run Simulation for Sizing Periods
  Yes;                                    !- Run Simulation for Weather File Run Periods

OS:Timestep,
  {82d6a53d-5b48-4b60-8441-57c6091ccd46}, !- Handle
  6;                                      !- Number of Timesteps per Hour

OS:RunPeriod,
  {fb5e367a-3fbc-427e-91b1-5ee37549aa62}, !- Handle
  Run Period 1,                           !- Name
  1,                                      !- Begin Month
  1,                                      !- Begin Day of Month
  12,                                     !- End Month
  31,                                     !- End Day of Month
  No,                                     !- Use Weather File Holidays and Special Days
  No,                                     !- Use Weather File Daylight Saving Period
  No,                                     !- Apply Weekend Holiday Rule
  Yes,                                    !- Use Weather File Rain Indicators
  Yes,                                    !- Use Weather File Snow Indicators
  1;                                      !- Number of Times Runperiod to be Repeated

OS:SurfaceConvectionAlgorithm:Inside,
  {2625f246-0598-450e-bd03-b4ef1e881d7c}, !- Handle
  TARP;                                   !- Algorithm

OS:SurfaceConvectionAlgorithm:Outside,
  {62b03a68-6ab2-444f-8f89-54e584a1c3ed}, !- Handle
  DOE-2;                                  !- Algorithm

OS:HeatBalanceAlgorithm,
  {9bff3fc7-deec-4a54-9208-3ed5f2650762}, !- Handle
  ConductionTransferFunction,             !- Algorithm
  200;                                    !- Surface Temperature Upper Limit {F}

OS:ZoneAirHeatBalanceAlgorithm,
  {e6879f99-8dcb-426c-98de-361e6fd7c356}, !- Handle
  AnalyticalSolution;                     !- Algorithm

OS:ConvergenceLimits,
  {3f1c23da-1edd-458b-bfb9-5f4210386ffc}; !- Handle

OS:ShadowCalculation,
  {9297d50b-aab2-44d4-9087-2210cf01ecba}, !- Handle
  7,                                      !- Calculation Frequency
  15000;                                  !- Maximum Figures in Shadow Overlap Calculations

OS:Site,
  {7b7992ad-a253-45aa-a0e8-96ae6b7bf272}, !- Handle
  Site 1,                                 !- Name
  41.77,                                  !- Latitude {deg}
  -87.75,                                 !- Longitude {deg}
  -6,                                     !- Time Zone {hr}
  190,                                    !- Elevation {m}
  ;                                       !- Terrain

OS:Site:GroundTemperature:BuildingSurface,
  {999c39fd-7ec0-4b51-8508-c4ef14e08cf1}, !- Handle
  19.527,                                 !- January Ground Temperature {C}
  19.502,                                 !- February Ground Temperature {C}
  19.536,                                 !- March Ground Temperature {C}
  19.598,                                 !- April Ground Temperature {C}
  20.002,                                 !- May Ground Temperature {C}
  21.64,                                  !- June Ground Temperature {C}
  22.225,                                 !- July Ground Temperature {C}
  22.375,                                 !- August Ground Temperature {C}
  21.449,                                 !- September Ground Temperature {C}
  20.121,                                 !- October Ground Temperature {C}
  19.802,                                 !- November Ground Temperature {C}
  19.633;                                 !- December Ground Temperature {C}

OS:Site:WaterMainsTemperature,
  {48b7fc53-b197-4f92-b0b9-77e6f9107b7c}, !- Handle
  Correlation,                            !- Calculation Method
  ,                                       !- Temperature Schedule Name
  9.69,                                   !- Annual Average Outdoor Air Temperature {C}
  28.1;                                   !- Maximum Difference In Monthly Average Outdoor Air Temperatures {deltaC}

OS:SizingPeriod:DesignDay,
  {b78017b3-25c9-4388-bb7e-04348ea8536d}, !- Handle
  Sizing Period Design Day 1,             !- Name
  -20.6,                                  !- Maximum Dry-Bulb Temperature {C}
  0,                                      !- Daily Dry-Bulb Temperature Range {deltaC}
  -20.6,                                  !- Humidity Indicating Conditions at Maximum Dry-Bulb {BasedOnField A3}
  99063,                                  !- Barometric Pressure {Pa}
  4.9,                                    !- Wind Speed {m/s}
  270,                                    !- Wind Direction {deg}
  0,                                      !- Sky Clearness
  0,                                      !- Rain Indicator
  0,                                      !- Snow Indicator
  21,                                     !- Day of Month
  1,                                      !- Month
  WinterDesignDay,                        !- Day Type
  0,                                      !- Daylight Saving Time Indicator
  WetBulb,                                !- Humidity Indicating Type
  ,                                       !- Humidity Indicating Day Schedule Name
  DefaultMultipliers,                     !- Dry-Bulb Temperature Range Modifier Type
  ,                                       !- Dry-Bulb Temperature Range Modifier Schedule Name
  AshraeClearSky;                         !- Solar Model Indicator

OS:SizingPeriod:DesignDay,
  {e6818d76-3482-4212-9162-23ee4e872560}, !- Handle
  Sizing Period Design Day 2,             !- Name
  33.2,                                   !- Maximum Dry-Bulb Temperature {C}
  10.7,                                   !- Daily Dry-Bulb Temperature Range {deltaC}
  23.8,                                   !- Humidity Indicating Conditions at Maximum Dry-Bulb {BasedOnField A3}
  99063,                                  !- Barometric Pressure {Pa}
  5.3,                                    !- Wind Speed {m/s}
  230,                                    !- Wind Direction {deg}
  1,                                      !- Sky Clearness
  0,                                      !- Rain Indicator
  0,                                      !- Snow Indicator
  21,                                     !- Day of Month
  7,                                      !- Month
  SummerDesignDay,                        !- Day Type
  0,                                      !- Daylight Saving Time Indicator
  WetBulb,                                !- Humidity Indicating Type
  ,                                       !- Humidity Indicating Day Schedule Name
  DefaultMultipliers,                     !- Dry-Bulb Temperature Range Modifier Type
  ,                                       !- Dry-Bulb Temperature Range Modifier Schedule Name
  AshraeClearSky;                         !- Solar Model Indicator

OS:ScheduleTypeLimits,
  {31b1bef5-4659-4d82-bdad-387b06298578}, !- Handle
  Temperature,                            !- Name
  -60,                                    !- Lower Limit Value {BasedOnField A4}
  200,                                    !- Upper Limit Value {BasedOnField A4}
  CONTINUOUS,                             !- Numeric Type
  Temperature;                            !- Unit Type

OS:DefaultScheduleSet,
  {31b21c00-2453-4735-a880-d8dafd30ca12}, !- Handle
  Default Schedules,                      !- Name
  ,                                       !- Hours of Operation Schedule Name
  {5d446b55-e0cc-4d65-9cad-3b647c919996}, !- Number of People Schedule Name
  {7116fb83-e0c1-40a0-adb6-df3de14c03b0}, !- People Activity Level Schedule Name
  {a65f80d5-517c-4ab7-9758-f9b77f0819a2}, !- Lighting Schedule Name
  {863ca488-c614-4f46-8f09-400570393d32}, !- Electric Equipment Schedule Name
  {c97de6fb-4ab3-4539-a7c4-93dd6fdc9a05}, !- Gas Equipment Schedule Name
  {bbcf1160-daba-48e1-a455-0445acf5ab52}, !- Hot Water Equipment Schedule Name
  {cb537056-50d8-4c79-b20e-527d69568c67}, !- Infiltration Schedule Name
  ,                                       !- Steam Equipment Schedule Name
  ;                                       !- Other Equipment Schedule Name

OS:Schedule:Ruleset,
  {5d446b55-e0cc-4d65-9cad-3b647c919996}, !- Handle
  Medium Office Number of People Schedule, !- Name
  {6012a250-26c7-438b-b718-d532ce0ea20c}, !- Schedule Type Limits Name
  {6afd82b4-7e06-46d4-8867-94a4d34c27b7}, !- Default Day Schedule Name
  {eabe7798-2ef0-4ada-88a5-954ede42179a}; !- Summer Design Day Schedule Name

OS:Schedule:Day,
  {6afd82b4-7e06-46d4-8867-94a4d34c27b7}, !- Handle
  Medium Office Number of People All Other Days Schedule, !- Name
  {6012a250-26c7-438b-b718-d532ce0ea20c}, !- Schedule Type Limits Name
  ,                                       !- Interpolate to Timestep
  24,                                     !- Hour 1
  0,                                      !- Minute 1
  0;                                      !- Value Until Time 1

OS:Schedule:Day,
  {0df027c4-6bda-4651-8f8e-bda6bd82a193}, !- Handle
  Medium Office Number of People Summer Design Day Schedule, !- Name
  ,                                       !- Schedule Type Limits Name
  ,                                       !- Interpolate to Timestep
  6,                                      !- Hour 1
  0,                                      !- Minute 1
  0,                                      !- Value Until Time 1
  22,                                     !- Hour 2
  0,                                      !- Minute 2
  1,                                      !- Value Until Time 2
  24,                                     !- Hour 3
  0,                                      !- Minute 3
  0.05;                                   !- Value Until Time 3

OS:Schedule:Day,
  {eabe7798-2ef0-4ada-88a5-954ede42179a}, !- Handle
  Medium Office Number of People Summer Design Day Schedule 1, !- Name
  {6012a250-26c7-438b-b718-d532ce0ea20c}, !- Schedule Type Limits Name
  ,                                       !- Interpolate to Timestep
  6,                                      !- Hour 1
  0,                                      !- Minute 1
  0,                                      !- Value Until Time 1
  22,                                     !- Hour 2
  0,                                      !- Minute 2
  1,                                      !- Value Until Time 2
  24,                                     !- Hour 3
  0,                                      !- Minute 3
  0.05;                                   !- Value Until Time 3

OS:Schedule:Rule,
  {53a28d07-b172-4ad0-9d7f-9430ec32267a}, !- Handle
  Medium Office Number of People Schedule Weekdays Rule, !- Name
  {5d446b55-e0cc-4d65-9cad-3b647c919996}, !- Schedule Ruleset Name
  1,                                      !- Rule Order
  {a4269670-0e74-4d41-949f-78d554ae7055}, !- Day Schedule Name
  ,                                       !- Apply Sunday
  Yes,                                    !- Apply Monday
  Yes,                                    !- Apply Tuesday
  Yes,                                    !- Apply Wednesday
  Yes,                                    !- Apply Thursday
  Yes;                                    !- Apply Friday

OS:Schedule:Day,
  {a4269670-0e74-4d41-949f-78d554ae7055}, !- Handle
  Medium Office Number of People Weekdays Schedule, !- Name
  {6012a250-26c7-438b-b718-d532ce0ea20c}, !- Schedule Type Limits Name
  ,                                       !- Interpolate to Timestep
  6,                                      !- Hour 1
  0,                                      !- Minute 1
  0,                                      !- Value Until Time 1
  7,                                      !- Hour 2
  0,                                      !- Minute 2
  0.1,                                    !- Value Until Time 2
  8,                                      !- Hour 3
  0,                                      !- Minute 3
  0.2,                                    !- Value Until Time 3
  12,                                     !- Hour 4
  0,                                      !- Minute 4
  0.95,                                   !- Value Until Time 4
  13,                                     !- Hour 5
  0,                                      !- Minute 5
  0.5,                                    !- Value Until Time 5
  17,                                     !- Hour 6
  0,                                      !- Minute 6
  0.95,                                   !- Value Until Time 6
  18,                                     !- Hour 7
  0,                                      !- Minute 7
  0.7,                                    !- Value Until Time 7
  20,                                     !- Hour 8
  0,                                      !- Minute 8
  0.4,                                    !- Value Until Time 8
  22,                                     !- Hour 9
  0,                                      !- Minute 9
  0.1,                                    !- Value Until Time 9
  24,                                     !- Hour 10
  0,                                      !- Minute 10
  0.05;                                   !- Value Until Time 10

OS:Schedule:Rule,
  {bb3b283e-a76a-4526-8575-46f831f3c883}, !- Handle
  Medium Office Number of People Schedule Saturday Rule, !- Name
  {5d446b55-e0cc-4d65-9cad-3b647c919996}, !- Schedule Ruleset Name
  0,                                      !- Rule Order
  {89506c61-77d2-4d71-8111-1100a95ea232}, !- Day Schedule Name
  ,                                       !- Apply Sunday
  ,                                       !- Apply Monday
  ,                                       !- Apply Tuesday
  ,                                       !- Apply Wednesday
  ,                                       !- Apply Thursday
  ,                                       !- Apply Friday
  Yes;                                    !- Apply Saturday

OS:Schedule:Day,
  {89506c61-77d2-4d71-8111-1100a95ea232}, !- Handle
  Medium Office Number of People Saturday Schedule, !- Name
  {6012a250-26c7-438b-b718-d532ce0ea20c}, !- Schedule Type Limits Name
  ,                                       !- Interpolate to Timestep
  6,                                      !- Hour 1
  0,                                      !- Minute 1
  0,                                      !- Value Until Time 1
  8,                                      !- Hour 2
  0,                                      !- Minute 2
  0.1,                                    !- Value Until Time 2
  14,                                     !- Hour 3
  0,                                      !- Minute 3
  0.5,                                    !- Value Until Time 3
  17,                                     !- Hour 4
  0,                                      !- Minute 4
  0.1,                                    !- Value Until Time 4
  24,                                     !- Hour 5
  0,                                      !- Minute 5
  0;                                      !- Value Until Time 5

OS:ScheduleTypeLimits,
  {6012a250-26c7-438b-b718-d532ce0ea20c}, !- Handle
  Fractional,                             !- Name
  0,                                      !- Lower Limit Value {BasedOnField A4}
  1,                                      !- Upper Limit Value {BasedOnField A4}
  Continuous;                             !- Numeric Type

OS:Schedule:Ruleset,
  {7116fb83-e0c1-40a0-adb6-df3de14c03b0}, !- Handle
  Medium Office People Activity Level Schedule, !- Name
  {1dea1e6a-d11a-4471-8705-de201025f4aa}, !- Schedule Type Limits Name
  {03977811-b110-49bb-acf3-130e06fc7094}; !- Default Day Schedule Name

OS:Schedule:Day,
  {03977811-b110-49bb-acf3-130e06fc7094}, !- Handle
  Medium Office People Activity Level All Days Schedule, !- Name
  {1dea1e6a-d11a-4471-8705-de201025f4aa}, !- Schedule Type Limits Name
  ,                                       !- Interpolate to Timestep
  24,                                     !- Hour 1
  0,                                      !- Minute 1
  120;                                    !- Value Until Time 1

OS:ScheduleTypeLimits,
  {1dea1e6a-d11a-4471-8705-de201025f4aa}, !- Handle
  ActivityLevel,                          !- Name
  0,                                      !- Lower Limit Value {BasedOnField A4}
  ,                                       !- Upper Limit Value {BasedOnField A4}
  Continuous,                             !- Numeric Type
  ActivityLevel;                          !- Unit Type

OS:Schedule:Ruleset,
  {a65f80d5-517c-4ab7-9758-f9b77f0819a2}, !- Handle
  Medium Office Lighting Schedule,        !- Name
  {6012a250-26c7-438b-b718-d532ce0ea20c}, !- Schedule Type Limits Name
  {ef259953-a590-482a-9a8c-43cc68218b07}, !- Default Day Schedule Name
  {6df3fd14-0104-4a0c-be0d-470ef96e3a2c}, !- Summer Design Day Schedule Name
  {442cfc76-c5d6-4380-aea3-81c24095bcb2}; !- Winter Design Day Schedule Name

OS:Schedule:Day,
  {ef259953-a590-482a-9a8c-43cc68218b07}, !- Handle
  Medium Office Lighting All Other Days Schedule, !- Name
  {6012a250-26c7-438b-b718-d532ce0ea20c}, !- Schedule Type Limits Name
  ,                                       !- Interpolate to Timestep
  24,                                     !- Hour 1
  0,                                      !- Minute 1
  0.05;                                   !- Value Until Time 1

OS:Schedule:Day,
  {4430d8db-d480-4935-9f46-c0df39fe10cf}, !- Handle
  Medium Office Lighting Summer Design Day Schedule, !- Name
  ,                                       !- Schedule Type Limits Name
  ,                                       !- Interpolate to Timestep
  6,                                      !- Hour 1
  0,                                      !- Minute 1
  1,                                      !- Value Until Time 1
  24,                                     !- Hour 2
  0,                                      !- Minute 2
  0;                                      !- Value Until Time 2

OS:Schedule:Day,
  {6df3fd14-0104-4a0c-be0d-470ef96e3a2c}, !- Handle
  Medium Office Lighting Summer Design Day Schedule 1, !- Name
  {6012a250-26c7-438b-b718-d532ce0ea20c}, !- Schedule Type Limits Name
  ,                                       !- Interpolate to Timestep
  6,                                      !- Hour 1
  0,                                      !- Minute 1
  1,                                      !- Value Until Time 1
  24,                                     !- Hour 2
  0,                                      !- Minute 2
  0;                                      !- Value Until Time 2

OS:Schedule:Day,
  {ed6a71cc-9381-4883-866d-bcb900f62471}, !- Handle
  Medium Office Lighting Winter Design Day Schedule, !- Name
  ,                                       !- Schedule Type Limits Name
  ,                                       !- Interpolate to Timestep
  24,                                     !- Hour 1
  0,                                      !- Minute 1
  0;                                      !- Value Until Time 1

OS:Schedule:Day,
  {442cfc76-c5d6-4380-aea3-81c24095bcb2}, !- Handle
  Medium Office Lighting Winter Design Day Schedule 1, !- Name
  {6012a250-26c7-438b-b718-d532ce0ea20c}, !- Schedule Type Limits Name
  ,                                       !- Interpolate to Timestep
  24,                                     !- Hour 1
  0,                                      !- Minute 1
  0;                                      !- Value Until Time 1

OS:Schedule:Rule,
  {60d594c7-bc40-4996-8398-559fbb12f262}, !- Handle
  Medium Office Lighting Schedule Weekdays Rule, !- Name
  {a65f80d5-517c-4ab7-9758-f9b77f0819a2}, !- Schedule Ruleset Name
  1,                                      !- Rule Order
  {e043cb10-d49a-447b-ad9d-6989855f4b8b}, !- Day Schedule Name
  ,                                       !- Apply Sunday
  Yes,                                    !- Apply Monday
  Yes,                                    !- Apply Tuesday
  Yes,                                    !- Apply Wednesday
  Yes,                                    !- Apply Thursday
  Yes;                                    !- Apply Friday

OS:Schedule:Day,
  {e043cb10-d49a-447b-ad9d-6989855f4b8b}, !- Handle
  Medium Office Lighting Weekdays Schedule, !- Name
  {6012a250-26c7-438b-b718-d532ce0ea20c}, !- Schedule Type Limits Name
  ,                                       !- Interpolate to Timestep
  5,                                      !- Hour 1
  0,                                      !- Minute 1
  0.05,                                   !- Value Until Time 1
  7,                                      !- Hour 2
  0,                                      !- Minute 2
  0.1,                                    !- Value Until Time 2
  8,                                      !- Hour 3
  0,                                      !- Minute 3
  0.3,                                    !- Value Until Time 3
  17,                                     !- Hour 4
  0,                                      !- Minute 4
  0.9,                                    !- Value Until Time 4
  18,                                     !- Hour 5
  0,                                      !- Minute 5
  0.7,                                    !- Value Until Time 5
  20,                                     !- Hour 6
  0,                                      !- Minute 6
  0.5,                                    !- Value Until Time 6
  22,                                     !- Hour 7
  0,                                      !- Minute 7
  0.3,                                    !- Value Until Time 7
  23,                                     !- Hour 8
  0,                                      !- Minute 8
  0.1,                                    !- Value Until Time 8
  24,                                     !- Hour 9
  0,                                      !- Minute 9
  0.05;                                   !- Value Until Time 9

OS:Schedule:Rule,
  {9a0e6724-d546-40c1-b9d4-9f89998e44ff}, !- Handle
  Medium Office Lighting Schedule Saturday Rule, !- Name
  {a65f80d5-517c-4ab7-9758-f9b77f0819a2}, !- Schedule Ruleset Name
  0,                                      !- Rule Order
  {5274defc-ae0c-4dfc-b8a0-81e05051ba44}, !- Day Schedule Name
  ,                                       !- Apply Sunday
  ,                                       !- Apply Monday
  ,                                       !- Apply Tuesday
  ,                                       !- Apply Wednesday
  ,                                       !- Apply Thursday
  ,                                       !- Apply Friday
  Yes;                                    !- Apply Saturday

OS:Schedule:Day,
  {5274defc-ae0c-4dfc-b8a0-81e05051ba44}, !- Handle
  Medium Office Lighting Saturday Schedule, !- Name
  {6012a250-26c7-438b-b718-d532ce0ea20c}, !- Schedule Type Limits Name
  ,                                       !- Interpolate to Timestep
  6,                                      !- Hour 1
  0,                                      !- Minute 1
  0.05,                                   !- Value Until Time 1
  8,                                      !- Hour 2
  0,                                      !- Minute 2
  0.1,                                    !- Value Until Time 2
  14,                                     !- Hour 3
  0,                                      !- Minute 3
  0.5,                                    !- Value Until Time 3
  17,                                     !- Hour 4
  0,                                      !- Minute 4
  0.15,                                   !- Value Until Time 4
  24,                                     !- Hour 5
  0,                                      !- Minute 5
  0.05;                                   !- Value Until Time 5

OS:Schedule:Ruleset,
  {863ca488-c614-4f46-8f09-400570393d32}, !- Handle
  Medium Office Electric Equipment Schedule, !- Name
  {6012a250-26c7-438b-b718-d532ce0ea20c}, !- Schedule Type Limits Name
  {0f33142d-4d3a-4491-be7a-f128c7348f13}, !- Default Day Schedule Name
  {be245b9a-e3df-481a-9526-85bcf4b482d8}, !- Summer Design Day Schedule Name
  {0668c5db-096d-4bfc-98ba-9b145bb2ad0a}; !- Winter Design Day Schedule Name

OS:Schedule:Day,
  {0f33142d-4d3a-4491-be7a-f128c7348f13}, !- Handle
  Medium Office Electric Equipment All Other Days Schedule, !- Name
  {6012a250-26c7-438b-b718-d532ce0ea20c}, !- Schedule Type Limits Name
  ,                                       !- Interpolate to Timestep
  24,                                     !- Hour 1
  0,                                      !- Minute 1
  0.3;                                    !- Value Until Time 1

OS:Schedule:Day,
  {09d03381-6509-4946-a425-cbf6cb55721e}, !- Handle
  Medium Office Electric Equipment Summer Design Day Schedule, !- Name
  ,                                       !- Schedule Type Limits Name
  ,                                       !- Interpolate to Timestep
  6,                                      !- Hour 1
  0,                                      !- Minute 1
  1,                                      !- Value Until Time 1
  24,                                     !- Hour 2
  0,                                      !- Minute 2
  0;                                      !- Value Until Time 2

OS:Schedule:Day,
  {be245b9a-e3df-481a-9526-85bcf4b482d8}, !- Handle
  Medium Office Electric Equipment Summer Design Day Schedule 1, !- Name
  {6012a250-26c7-438b-b718-d532ce0ea20c}, !- Schedule Type Limits Name
  ,                                       !- Interpolate to Timestep
  6,                                      !- Hour 1
  0,                                      !- Minute 1
  1,                                      !- Value Until Time 1
  24,                                     !- Hour 2
  0,                                      !- Minute 2
  0;                                      !- Value Until Time 2

OS:Schedule:Day,
  {f271b175-b2e5-4bee-bc45-f1bfdfbeed69}, !- Handle
  Medium Office Electric Equipment Winter Design Day Schedule, !- Name
  ,                                       !- Schedule Type Limits Name
  ,                                       !- Interpolate to Timestep
  24,                                     !- Hour 1
  0,                                      !- Minute 1
  0;                                      !- Value Until Time 1

OS:Schedule:Day,
  {0668c5db-096d-4bfc-98ba-9b145bb2ad0a}, !- Handle
  Medium Office Electric Equipment Winter Design Day Schedule 1, !- Name
  {6012a250-26c7-438b-b718-d532ce0ea20c}, !- Schedule Type Limits Name
  ,                                       !- Interpolate to Timestep
  24,                                     !- Hour 1
  0,                                      !- Minute 1
  0;                                      !- Value Until Time 1

OS:Schedule:Rule,
  {98f10b59-3be4-422b-b9e6-6d50d9fd0e63}, !- Handle
  Medium Office Electric Equipment Schedule Weekdays Rule, !- Name
  {863ca488-c614-4f46-8f09-400570393d32}, !- Schedule Ruleset Name
  1,                                      !- Rule Order
  {2d45faf0-c32c-4ff5-8d87-6b7bb1f32bdc}, !- Day Schedule Name
  ,                                       !- Apply Sunday
  Yes,                                    !- Apply Monday
  Yes,                                    !- Apply Tuesday
  Yes,                                    !- Apply Wednesday
  Yes,                                    !- Apply Thursday
  Yes;                                    !- Apply Friday

OS:Schedule:Day,
  {2d45faf0-c32c-4ff5-8d87-6b7bb1f32bdc}, !- Handle
  Medium Office Electric Equipment Weekdays Schedule, !- Name
  {6012a250-26c7-438b-b718-d532ce0ea20c}, !- Schedule Type Limits Name
  ,                                       !- Interpolate to Timestep
  8,                                      !- Hour 1
  0,                                      !- Minute 1
  0.4,                                    !- Value Until Time 1
  12,                                     !- Hour 2
  0,                                      !- Minute 2
  0.9,                                    !- Value Until Time 2
  13,                                     !- Hour 3
  0,                                      !- Minute 3
  0.8,                                    !- Value Until Time 3
  17,                                     !- Hour 4
  0,                                      !- Minute 4
  0.9,                                    !- Value Until Time 4
  18,                                     !- Hour 5
  0,                                      !- Minute 5
  0.8,                                    !- Value Until Time 5
  20,                                     !- Hour 6
  0,                                      !- Minute 6
  0.6,                                    !- Value Until Time 6
  22,                                     !- Hour 7
  0,                                      !- Minute 7
  0.5,                                    !- Value Until Time 7
  24,                                     !- Hour 8
  0,                                      !- Minute 8
  0.4;                                    !- Value Until Time 8

OS:Schedule:Rule,
  {d943297c-db85-4e3d-b003-00deba2a10d0}, !- Handle
  Medium Office Electric Equipment Schedule Saturday Rule, !- Name
  {863ca488-c614-4f46-8f09-400570393d32}, !- Schedule Ruleset Name
  0,                                      !- Rule Order
  {9aea2157-4da7-4193-8bb1-46d1707f2df1}, !- Day Schedule Name
  ,                                       !- Apply Sunday
  ,                                       !- Apply Monday
  ,                                       !- Apply Tuesday
  ,                                       !- Apply Wednesday