  Version,24.2;

  Building,
    Building 1,              !- Name
    0.0,                     !- North Axis {deg}
    Suburbs,                 !- Terrain
    .04,                     !- Loads Convergence Tolerance Value {W}
    .4,                      !- Temperature Convergence Tolerance Value {deltaC}
    FullExterior,            !- Solar Distribution
    25,                      !- Maximum Number of Warmup Days
    6;                       !- Minimum Number of Warmup Days

  Zone,
    Thermal Zone: Story 1 Core Space,  !- Name
    -0,                      !- Direction of Relative North {deg}
    4.57,                    !- X Origin {m}
    4.57,                    !- Y Origin {m}
    0,                       !- Z Origin {m}
    1,                       !- Type
    1,                       !- Multiplier
    Autocalculate,           !- Ceiling Height {m}
    Autocalculate,           !- Volume {m3}
    Autocalculate,           !- Floor Area {m2}
    ,                        !- Zone Inside Convection Algorithm
    ;                        !- Zone Outside Convection Algorithm

  BuildingSurface:Detailed,
    Surface 25,              !- Name
    Floor,                   !- Surface Type
    ExtSlabCarpet 4in ClimateZone 1-8,  !- Construction Name
    Thermal Zone: Story 1 Core Space,  !- Zone Name
    ,                        !- Space Name
    Ground,                  !- Outside Boundary Condition
    ,                        !- Outside Boundary Condition Object
    NoSun,                   !- Sun Exposure
    NoWind,                  !- Wind Exposure
    Autocalculate,           !- View Factor to Ground
    Autocalculate,           !- Number of Vertices
    30.86,10.86,0,  !- X,Y,Z ==> Vertex 1 {m}
    30.86,0,0,  !- X,Y,Z ==> Vertex 2 {m}
    0,0,0,  !- X,Y,Z ==> Vertex 3 {m}
    0,10.86,0;  !- X,Y,Z ==> Vertex 4 {m}

  BuildingSurface:Detailed,
    Surface 26,              !- Name
    Wall,                    !- Surface Type
    Interior Wall,           !- Construction Name
    Thermal Zone: Story 1 Core Space,  !- Zone Name
    ,                        !- Space Name
    Surface,                 !- Outside Boundary Condition
    Surface 4,               !- Outside Boundary Condition Object
    NoSun,                   !- Sun Exposure
    NoWind,                  !- Wind Exposure
    Autocalculate,           !- View Factor to Ground
    Autocalculate,           !- Number of Vertices
    0,10.86,3.8,  !- X,Y,Z ==> Vertex 1 {m}
    0,10.86,0,  !- X,Y,Z ==> Vertex 2 {m}
    0,0,0,  !- X,Y,Z ==> Vertex 3 {m}
    0,0,3.8;  !- X,Y,Z ==> Vertex 4 {m}

  BuildingSurface:Detailed,
    Surface 27,              !- Name
    Wall,                    !- Surface Type
    Interior Wall,           !- Construction Name
    Thermal Zone: Story 1 Core Space,  !- Zone Name
    ,                        !- Space Name
    Surface,                 !- Outside Boundary Condition
    Surface 10,              !- Outside Boundary Condition Object
    NoSun,                   !- Sun Exposure
    NoWind,                  !- Wind Exposure
    Autocalculate,           !- View Factor to Ground
    Autocalculate,           !- Number of Vertices
    30.86,10.86,3.8,  !- X,Y,Z ==> Vertex 1 {m}
    30.86,10.86,0,  !- X,Y,Z ==> Vertex 2 {m}
    0,10.86,0,  !- X,Y,Z ==> Vertex 3 {m}
    0,10.86,3.8;  !- X,Y,Z ==> Vertex 4 {m}

  BuildingSurface:Detailed,
    Surface 28,              !- Name
    Wall,                    !- Surface Type
    Interior Wall,           !- Construction Name
    Thermal Zone: Story 1 Core Space,  !- Zone Name
    ,                        !- Space Name
    Surface,                 !- Outside Boundary Condition
    Surface 16,              !- Outside Boundary Condition Object
    NoSun,                   !- Sun Exposure
    NoWind,                  !- Wind Exposure
    Autocalculate,           !- View Factor to Ground
    Autocalculate,           !- Number of Vertices
    30.86,0,3.8,  !- X,Y,Z ==> Vertex 1 {m}
    30.86,0,0,  !- X,Y,Z ==> Vertex 2 {m}
    30.86,10.86,0,  !- X,Y,Z ==> Vertex 3 {m}
    30.86,10.86,3.8;  !- X,Y,Z ==> Vertex 4 {m}

  BuildingSurface:Detailed,
    Surface 29,              !- Name
    Wall,                    !- Surface Type
    Interior Wall,           !- Construction Name
    Thermal Zone: Story 1 Core Space,  !- Zone Name
    ,                        !- Space Name
    Surface,                 !- Outside Boundary Condition
    Surface 22,              !- Outside Boundary Condition Object
    NoSun,                   !- Sun Exposure
    NoWind,                  !- Wind Exposure
    Autocalculate,           !- View Factor to Ground
    Autocalculate,           !- Number of Vertices
    0,0,3.8,  !- X,Y,Z ==> Vertex 1 {m}
    0,0,0,  !- X,Y,Z ==> Vertex 2 {m}
    30.86,0,0,  !- X,Y,Z ==> Vertex 3 {m}
    30.86,0,3.8;  !- X,Y,Z ==> Vertex 4 {m}

  BuildingSurface:Detailed,
    Surface 30,              !- Name
    Ceiling,                 !- Surface Type
    Interior Ceiling,        !- Construction Name
    Thermal Zone: Story 1 Core Space,  !- Zone Name
    ,                        !- Space Name
    Surface,                 !- Outside Boundary Condition
    Surface 55,              !- Outside Boundary Condition Object
    NoSun,                   !- Sun Exposure
    NoWind,                  !- Wind Exposure
    Autocalculate,           !- View Factor to Ground
    Autocalculate,           !- Number of Vertices
    30.86,0,3.8,  !- X,Y,Z ==> Vertex 1 {m}
    30.86,10.86,3.8,  !- X,Y,Z ==> Vertex 2 {m}
    0,10.86,3.8,  !- X,Y,Z ==> Vertex 3 {m}
    0,0,3.8;  !- X,Y,Z ==> Vertex 4 {m}

  ZoneControl:Thermostat,
    Thermal Zone: Story 1 Core Space Thermostat,  !- Name
    Thermal Zone: Story 1 Core Space,  !- Zone or ZoneList Name
    Thermal Zone: Story 1 Core Space Thermostat Schedule,  !- Control Type Schedule Name
    ThermostatSetpoint:DualSetpoint,  !- Control 1 Object Type
    Thermostat Setpoint Dual Setpoint 1;  !- Control 1 Name

  Schedule:Compact,
    Thermal Zone: Story 1 Core Space Thermostat Schedule,  !- Name
    Thermal Zone: Story 1 Core Space Thermostat Schedule Type Limits,  !- Schedule Type Limits Name
    Through: 12/31,          !- Field 1
    For: AllDays,            !- Field 2
    Until: 24:00,4;          !- Field 3

  ScheduleTypeLimits,
    Thermal Zone: Story 1 Core Space Thermostat Schedule Type Limits,  !- Name
    0,                       !- Lower Limit Value
    4,                       !- Upper Limit Value
    DISCRETE;                !- Numeric Type

  ThermostatSetpoint:DualSetpoint,
    Thermostat Setpoint Dual Setpoint 1,  !- Name
    Large Office HtgSetp,    !- Heating Setpoint Temperature Schedule Name
    Large Office ClgSetp;    !- Cooling Setpoint Temperature Schedule Name

  ScheduleTypeLimits,
    Temperature 3,           !- Name
    ,                        !- Lower Limit Value
    ,                        !- Upper Limit Value
    Continuous,              !- Numeric Type
    temperature;             !- Unit Type

  Schedule:Day:Interval,
    Large Office HtgSetp Rule 1 Day Schedule,  !- Name
    Temperature 3,           !- Schedule Type Limits Name
    No,                      !- Interpolate to Timestep
    24:00,                   !- Time 1
    15.6;                    !- Value Until Time 1

  Schedule:Day:Interval,
    Large Office HtgSetp Default Schedule,  !- Name
    Temperature 3,           !- Schedule Type Limits Name
    No,                      !- Interpolate to Timestep
    06:00,                   !- Time 1
    15.6,                    !- Value Until Time 1
    22:00,                   !- Time 2
    21,                      !- Value Until Time 2
    24:00,                   !- Time 3
    15.6;                    !- Value Until Time 3

  Schedule:Day:Interval,
    Large Office HtgSetp Rule 2 Day Schedule,  !- Name
    Temperature 3,           !- Schedule Type Limits Name
    No,                      !- Interpolate to Timestep
    06:00,                   !- Time 1
    15.6,                    !- Value Until Time 1
    18:00,                   !- Time 2
    21,                      !- Value Until Time 2
    24:00,                   !- Time 3
    15.6;                    !- Value Until Time 3

  Schedule:Week:Daily,
    Schedule:Week:Daily {9cb198a9-0971-4e0a-b438-0460d33db755},  !- Name
    Large Office HtgSetp Rule 1 Day Schedule,  !- Sunday Schedule:Day Name
    Large Office HtgSetp Default Schedule,  !- Monday Schedule:Day Name
    Large Office HtgSetp Default Schedule,  !- Tuesday Schedule:Day Name
    Large Office HtgSetp Default Schedule,  !- Wednesday Schedule:Day Name
    Large Office HtgSetp Default Schedule,  !- Thursday Schedule:Day Name
    Large Office HtgSetp Default Schedule,  !- Friday Schedule:Day Name
    Large Office HtgSetp Rule 2 Day Schedule,  !- Saturday Schedule:Day Name
    Large Office HtgSetp Default Schedule,  !- Holiday Schedule:Day Name
    Large Office HtgSetp Summer Design Day,  !- SummerDesignDay Schedule:Day Name
    Large Office HtgSetp Winter Design Day,  !- WinterDesignDay Schedule:Day Name
    Large Office HtgSetp Default Schedule,  !- CustomDay1 Schedule:Day Name
    Large Office HtgSetp Default Schedule;  !- CustomDay2 Schedule:Day Name

  Schedule:Year,
    Large Office HtgSetp,    !- Name
    Temperature 3,           !- Schedule Type Limits Name
    Schedule:Week:Daily {9cb198a9-0971-4e0a-b438-0460d33db755},  !- Schedule:Week Name 1
    1,                       !- Start Month 1
    1,                       !- Start Day 1
    12,                      !- End Month 1
    31;                      !- End Day 1

  Schedule:Day:Interval,
    Large Office HtgSetp Summer Design Day,  !- Name
    Temperature 3,           !- Schedule Type Limits Name
    No,                      !- Interpolate to Timestep
    24:00,                   !- Time 1
    15.6;                    !- Value Until Time 1

  Schedule:Day:Interval,
    Large Office HtgSetp Winter Design Day,  !- Name
    Temperature 3,           !- Schedule Type Limits Name
    No,                      !- Interpolate to Timestep
    24:00,                   !- Time 1
    21;                      !- Value Until Time 1

  ScheduleTypeLimits,
    Temperature 5,           !- Name
    ,                        !- Lower Limit Value
    ,                        !- Upper Limit Value
    Continuous,              !- Numeric Type
    temperature;             !- Unit Type

  Schedule:Day:Interval,
    Large Office ClgSetp Rule 1 Day Schedule,  !- Name
    Temperature 5,           !- Schedule Type Limits Name
    No,                      !- Interpolate to Timestep
    24:00,                   !- Time 1
    26.7;                    !- Value Until Time 1

  Schedule:Day:Interval,
    Large Office ClgSetp Default Schedule,  !- Name
    Temperature 5,           !- Schedule Type Limits Name
    No,                      !- Interpolate to Timestep
    06:00,                   !- Time 1
    26.7,                    !- Value Until Time 1
    22:00,                   !- Time 2
    24,                      !- Value Until Time 2
    24:00,                   !- Time 3
    26.7;                    !- Value Until Time 3

  Schedule:Day:Interval,
    Large Office ClgSetp Rule 2 Day Schedule,  !- Name
    Temperature 5,           !- Schedule Type Limits Name
    No,                      !- Interpolate to Timestep
    06:00,                   !- Time 1
    26.7,                    !- Value Until Time 1
    18:00,                   !- Time 2
    24,                      !- Value Until Time 2
    24:00,                   !- Time 3
    26.7;                    !- Value Until Time 3

  Schedule:Week:Daily,
    Schedule:Week:Daily {f6675177-2cb9-4cea-8939-af2c6a593938},  !- Name
    Large Office ClgSetp Rule 1 Day Schedule,  !- Sunday Schedule:Day Name
    Large Office ClgSetp Default Schedule,  !- Monday Schedule:Day Name
    Large Office ClgSetp Default Schedule,  !- Tuesday Schedule:Day Name
    Large Office ClgSetp Default Schedule,  !- Wednesday Schedule:Day Name
    Large Office ClgSetp Default Schedule,  !- Thursday Schedule:Day Name
    Large Office ClgSetp Default Schedule,  !- Friday Schedule:Day Name
    Large Office ClgSetp Rule 2 Day Schedule,  !- Saturday Schedule:Day Name
    Large Office ClgSetp Default Schedule,  !- Holiday Schedule:Day Name
    Large Office ClgSetp Summer Design Day,  !- SummerDesignDay Schedule:Day Name
    Large Office ClgSetp Winter Design Day,  !- WinterDesignDay Schedule:Day Name
    Large Office ClgSetp Default Schedule,  !- CustomDay1 Schedule:Day Name
    Large Office ClgSetp Default Schedule;  !- CustomDay2 Schedule:Day Name

  Schedule:Year,
    Large Office ClgSetp,    !- Name
    Temperature 5,           !- Schedule Type Limits Name
    Schedule:Week:Daily {f6675177-2cb9-4cea-8939-af2c6a593938},  !- Schedule:Week Name 1
    1,                       !- Start Month 1
    1,                       !- Start Day 1
    12,                      !- End Month 1
    31;                      !- End Day 1

  Schedule:Day:Interval,
    Large Office ClgSetp Summer Design Day,  !- Name
    Temperature 5,           !- Schedule Type Limits Name
    No,                      !- Interpolate to Timestep
    06:00,                   !- Time 1
    26.7,                    !- Value Until Time 1
    22:00,                   !- Time 2
    24,                      !- Value Until Time 2
    24:00,                   !- Time 3
    26.7;                    !- Value Until Time 3

  Schedule:Day:Interval,
    Large Office ClgSetp Winter Design Day,  !- Name
    Temperature 5,           !- Schedule Type Limits Name
    No,                      !- Interpolate to Timestep
    24:00,                   !- Time 1
    26.7;                    !- Value Until Time 1

  ZoneHVAC:EquipmentConnections,
    Thermal Zone: Story 1 Core Space,  !- Zone Name
    Thermal Zone: Story 1 Core Space Equipment List,  !- Zone Conditioning Equipment List Name
    Thermal Zone: Story 1 Core Space Inlet Node List,  !- Zone Air Inlet Node or NodeList Name
    Thermal Zone: Story 1 Core Space Exhaust Node List,  !- Zone Air Exhaust Node or NodeList Name
    Node 8,                  !- Zone Air Node Name
    Thermal Zone: Story 1 Core Space Return Air Node;  !- Zone Return Air Node or NodeList Name

  NodeList,
    Thermal Zone: Story 1 Core Space Inlet Node List,  !- Name
    Node 17;                 !- Node 1 Name

  NodeList,
    Thermal Zone: Story 1 Core Space Exhaust Node List,  !- Name
    Node 16;                 !- Node 1 Name

  ZoneHVAC:PackagedTerminalAirConditioner,
    PTAC DX Clg HW Htg,      !- Name
    Always On Discrete 1,    !- Availability Schedule Name
    Node 16,                 !- Air Inlet Node Name
    Node 17,                 !- Air Outlet Node Name
    OutdoorAir:Mixer,        !- Outdoor Air Mixer Object Type
    PTAC DX Clg HW Htg OA Mixer,  !- Outdoor Air Mixer Name
    Autosize,                !- Cooling Supply Air Flow Rate {m3/s}
    Autosize,                !- Heating Supply Air Flow Rate {m3/s}
    Autosize,                !- No Load Supply Air Flow Rate {m3/s}
    No,                      !- No Load Supply Air Flow Rate Control Set To Low Speed
    Autosize,                !- Cooling Outdoor Air Flow Rate {m3/s}
    Autosize,                !- Heating Outdoor Air Flow Rate {m3/s}
    Autosize,                !- No Load Outdoor Air Flow Rate {m3/s}
    Fan:OnOff,               !- Supply Air Fan Object Type
    PTAC Fan,                !- Supply Air Fan Name
    Coil:Heating:Water,      !- Heating Coil Object Type
    PTAC HW Htg Coil,        !- Heating Coil Name
    Coil:Cooling:DX:SingleSpeed,  !- Cooling Coil Object Type
    PTAC 1 Spd DX Clg Coil,  !- Cooling Coil Name
    DrawThrough,             !- Fan Placement
    Always Off Discrete;     !- Supply Air Fan Operating Mode Schedule Name

  Schedule:Constant,Always On Discrete 1,Schedule Type Limits 1,1;

  Schedule:Constant,Always Off Discrete,Schedule Type Limits 1,0;

  OutdoorAir:Mixer,
    PTAC DX Clg HW Htg OA Mixer,  !- Name
    PTAC DX Clg HW Htg Mixed Air Node,  !- Mixed Air Node Name
    PTAC DX Clg HW Htg OA Node,  !- Outdoor Air Stream Node Name
    PTAC DX Clg HW Htg Relief Air Node,  !- Relief Air Stream Node Name
    Node 16;                 !- Return Air Stream Node Name

  OutdoorAir:NodeList,
    PTAC DX Clg HW Htg OA Node;  !- Node or NodeList Name 1

  Fan:OnOff,
    PTAC Fan,                !- Name
    Always On Discrete 1,    !- Availability Schedule Name
    0.7,                     !- Fan Total Efficiency
    250,                     !- Pressure Rise {Pa}
    Autosize,                !- Maximum Flow Rate {m3/s}
    0.9,                     !- Motor Efficiency
    1,                       !- Motor In Airstream Fraction
    PTAC DX Clg HW Htg Heating Coil Outlet Node,  !- Air Inlet Node Name
    Node 17,                 !- Air Outlet Node Name
    Fan On Off Power Curve,  !- Fan Power Ratio Function of Speed Ratio Curve Name
    Fan On Off Efficiency Curve,  !- Fan Efficiency Ratio Function of Speed Ratio Curve Name
    General;                 !- End-Use Subcategory

  Curve:Exponent,
    Fan On Off Power Curve,  !- Name
    1,                       !- Coefficient1 Constant
    0,                       !- Coefficient2 Constant
    0,                       !- Coefficient3 Constant
    0,                       !- Minimum Value of x
    1;                       !- Maximum Value of x

  Curve:Cubic,
    Fan On Off Efficiency Curve,  !- Name
    1,                       !- Coefficient1 Constant
    0,                       !- Coefficient2 x
    0,                       !- Coefficient3 x**2
    0,                       !- Coefficient4 x**3
    0,                       !- Minimum Value of x
    1;                       !- Maximum Value of x

  Coil:Heating:Water,
    PTAC HW Htg Coil,        !- Name
    Always On Discrete 1,    !- Availability Schedule Name
    Autosize,                !- U-Factor Times Area Value {W/K}
    Autosize,                !- Maximum Water Flow Rate {m3/s}
    Node 202,                !- Water Inlet Node Name
    Node 203,                !- Water Outlet Node Name
    PTAC DX Clg HW Htg Cooling Coil Outlet Node,  !- Air Inlet Node Name
    PTAC DX Clg HW Htg Heating Coil Outlet Node,  !- Air Outlet Node Name
    UFactorTimesAreaAndDesignWaterFlowRate,  !- Performance Input Method
    Autosize,                !- Rated Capacity {W}
    82.2,                    !- Rated Inlet Water Temperature {C}
    16.6,                    !- Rated Inlet Air Temperature {C}
    71.1,                    !- Rated Outlet Water Temperature {C}
    32.2,                    !- Rated Outlet Air Temperature {C}
    0.5;                     !- Rated Ratio for Air and Water Convection

  Curve:Biquadratic,
    OS:Curve:Biquadratic 13, !- Name
    0.42415,                 !- Coefficient1 Constant
    0.04426,                 !- Coefficient2 x
    -0.00042,                !- Coefficient3 x**2
    0.00333,                 !- Coefficient4 y
    -8e-005,                 !- Coefficient5 y**2
    -0.00021,                !- Coefficient6 x*y
    17,                      !- Minimum Value of x
    22,                      !- Maximum Value of x
    13,                      !- Minimum Value of y
    46;                      !- Maximum Value of y

  Curve:Quadratic,
    OS:Curve:Quadratic 17,   !- Name
    0.77136,                 !- Coefficient1 Constant
    0.34053,                 !- Coefficient2 x
    -0.11088,                !- Coefficient3 x**2
    0.75918,                 !- Minimum Value of x
    1.13877;                 !- Maximum Value of x

  Curve:Biquadratic,
    OS:Curve:Biquadratic 14, !- Name
    1.23649,                 !- Coefficient1 Constant
    -0.02431,                !- Coefficient2 x
    0.00057,                 !- Coefficient3 x**2
    -0.01434,                !- Coefficient4 y
    0.00063,                 !- Coefficient5 y**2
    -0.00038,                !- Coefficient6 x*y
    17,                      !- Minimum Value of x
    22,                      !- Maximum Value of x
    13,                      !- Minimum Value of y
    46;                      !- Maximum Value of y

  Curve:Quadratic,
    OS:Curve:Quadratic 18,   !- Name
    1.2055,                  !- Coefficient1 Constant
    -0.32953,                !- Coefficient2 x
    0.12308,                 !- Coefficient3 x**2
    0.75918,                 !- Minimum Value of x
    1.13877;                 !- Maximum Value of x

  Curve:Quadratic,
    OS:Curve:Quadratic 19,   !- Name
    0.771,                   !- Coefficient1 Constant
    0.229,                   !- Coefficient2 x
    0,                       !- Coefficient3 x**2
    0,                       !- Minimum Value of x
    1;                       !- Maximum Value of x

  Coil:Cooling:DX:SingleSpeed,
    PTAC 1 Spd DX Clg Coil,  !- Name
    Always On Discrete 1,    !- Availability Schedule Name
    Autosize,                !- Gross Rated Total Cooling Capacity {W}
    Autosize,                !- Gross Rated Sensible Heat Ratio
    3,                       !- Gross Rated Cooling COP {W/W}
    Autosize,                !- Rated Air Flow Rate {m3/s}
    773.3,                   !- 2017 Rated Evaporator Fan Power Per Volume Flow Rate {W/(m3/s)}
    ,                        !- 2023 Rated Evaporator Fan Power Per Volume Flow Rate {W/(m3/s)}
    PTAC DX Clg HW Htg Mixed Air Node,  !- Air Inlet Node Name
    PTAC DX Clg HW Htg Cooling Coil Outlet Node,  !- Air Outlet Node Name
    OS:Curve:Biquadratic 13, !- Total Cooling Capacity Function of Temperature Curve Name
    OS:Curve:Quadratic 17,   !- Total Cooling Capacity Function of Flow Fraction Curve Name
    OS:Curve:Biquadratic 14, !- Energy Input Ratio Function of Temperature Curve Name
    OS:Curve:Quadratic 18,   !- Energy Input Ratio Function of Flow Fraction Curve Name
    OS:Curve:Quadratic 19,   !- Part Load Fraction Correlation Curve Name
    -25.0,                   !- Minimum Outdoor Dry-Bulb Temperature for Compressor Operation {C}
    0.0,                     !- Nominal Time for Condensate Removal to Begin {s}
    0.0,                     !- Ratio of Initial Moisture Evaporation Rate and Steady State Latent Capacity {dimensionless}
    0.0,                     !- Maximum Cycling Rate {cycles/hr}
    0.0,                     !- Latent Capacity Time Constant {s}
    ,                        !- Condenser Air Inlet Node Name
    AirCooled,               !- Condenser Type
    0,                       !- Evaporative Condenser Effectiveness {dimensionless}
    ,                        !- Evaporative Condenser Air Flow Rate {m3/s}
    0.0,                     !- Evaporative Condenser Pump Rated Power Consumption {W}
    0,                       !- Crankcase Heater Capacity {W}
    ,                        !- Crankcase Heater Capacity Function of Temperature Curve Name
    0,                       !- Maximum Outdoor Dry-Bulb Temperature for Crankcase Heater Operation {C}
    ,                        !- Supply Water Storage Tank Name
    ,                        !- Condensate Collection Water Storage Tank Name
    0,                       !- Basin Heater Capacity {W/K}
    10;                      !- Basin Heater Setpoint Temperature {C}

  ZoneHVAC:EquipmentList,
    Thermal Zone: Story 1 Core Space Equipment List,  !- Name
    SequentialLoad,          !- Load Distribution Scheme
    ZoneHVAC:PackagedTerminalAirConditioner,  !- Zone Equipment 1 Object Type
    PTAC DX Clg HW Htg,      !- Zone Equipment 1 Name
    1,                       !- Zone Equipment 1 Cooling Sequence
    1,                       !- Zone Equipment 1 Heating or No-Load Sequence
    ,                        !- Zone Equipment 1 Sequential Cooling Fraction Schedule Name
    ;                        !- Zone Equipment 1 Sequential Heating Fraction Schedule Name

  Sizing:Zone,
    Thermal Zone: Story 1 Core Space,  !- Zone or ZoneList Name
    SupplyAirTemperature,    !- Zone Cooling Design Supply Air Temperature Input Method
    14,                      !- Zone Cooling Design Supply Air Temperature {C}
    ,                        !- Zone Cooling Design Supply Air Temperature Difference {deltaC}
    SupplyAirTemperature,    !- Zone Heating Design Supply Air Temperature Input Method
    40,                      !- Zone Heating Design Supply Air Temperature {C}
    ,                        !- Zone Heating Design Supply Air Temperature Difference {deltaC}
    0.0085,                  !- Zone Cooling Design Supply Air Humidity Ratio {kgWater/kgDryAir}
    0.008,                   !- Zone Heating Design Supply Air Humidity Ratio {kgWater/kgDryAir}
    90.1-2007 - Office - OpenOffice Ventilation,  !- Design Specification Outdoor Air Object Name
    ,                        !- Zone Heating Sizing Factor
    ,                        !- Zone Cooling Sizing Factor
    DesignDay,               !- Cooling Design Air Flow Method
    0,                       !- Cooling Design Air Flow Rate {m3/s}
    0.000762,                !- Cooling Minimum Air Flow per Zone Floor Area {m3/s-m2}
    0,                       !- Cooling Minimum Air Flow {m3/s}
    0,                       !- Cooling Minimum Air Flow Fraction
    DesignDay,               !- Heating Design Air Flow Method
    0,                       !- Heating Design Air Flow Rate {m3/s}
    0.002032,                !- Heating Maximum Air Flow per Zone Floor Area {m3/s-m2}
    0.1415762,               !- Heating Maximum Air Flow {m3/s}
    0.3,                     !- Heating Maximum Air Flow Fraction
    Thermal Zone: Story 1 Core Space Design Spec Zone Air Dist,  !- Design Specification Zone Air Distribution Object Name
    No,                      !- Account for Dedicated Outdoor Air System
    NeutralSupplyAir,        !- Dedicated Outdoor Air System Control Strategy
    autosize,                !- Dedicated Outdoor Air Low Setpoint Temperature for Design {C}
    autosize,                !- Dedicated Outdoor Air High Setpoint Temperature for Design {C}
    Sensible Load Only No Latent Load,  !- Zone Load Sizing Method
    HumidityRatioDifference, !- Zone Latent Cooling Design Supply Air Humidity Ratio Input Method
    ,                        !- Zone Dehumidification Design Supply Air Humidity Ratio {kgWater/kgDryAir}
    0.005,                   !- Zone Cooling Design Supply Air Humidity Ratio Difference {kgWater/kgDryAir}
    HumidityRatioDifference, !- Zone Latent Heating Design Supply Air Humidity Ratio Input Method
    ,                        !- Zone Humidification Design Supply Air Humidity Ratio {kgWater/kgDryAir}
    0.005;                   !- Zone Humidification Design Supply Air Humidity Ratio Difference {kgWater/kgDryAir}

  DesignSpecification:ZoneAirDistribution,
    Thermal Zone: Story 1 Core Space Design Spec Zone Air Dist,  !- Name
    1,                       !- Zone Air Distribution Effectiveness in Cooling Mode {dimensionless}
    1;                       !- Zone Air Distribution Effectiveness in Heating Mode {dimensionless}

  DesignSpecification:OutdoorAir,
    90.1-2007 - Office - OpenOffice Ventilation,  !- Name
    Sum,                     !- Outdoor Air Method
    0.002359737216,          !- Outdoor Air Flow per Person {m3/s-person}
    0.0003048,               !- Outdoor Air Flow per Zone Floor Area {m3/s-m2}
    0,                       !- Outdoor Air Flow per Zone {m3/s}
    0;                       !- Outdoor Air Flow Air Changes per Hour {1/hr}

  Zone,
    Thermal Zone: Story 1 East Perimeter Space,  !- Name
    -0,                      !- Direction of Relative North {deg}
    35.43,                   !- X Origin {m}
    4.57,                    !- Y Origin {m}
    0,                       !- Z Origin {m}
    1,                       !- Type
    1,                       !- Multiplier
    Autocalculate,           !- Ceiling Height {m}
    Autocalculate,           !- Volume {m3}
    Autocalculate,           !- Floor Area {m2}
    ,                        !- Zone Inside Convection Algorithm
    ;                        !- Zone Outside Convection Algorithm

  BuildingSurface:Detailed,
    Surface 13,              !- Name
    Floor,                   !- Surface Type
    ExtSlabCarpet 4in ClimateZone 1-8,  !- Construction Name
    Thermal Zone: Story 1 East Perimeter Space,  !- Zone Name
    ,                        !- Space Name
    Ground,                  !- Outside Boundary Condition
    ,                        !- Outside Boundary Condition Object
    NoSun,                   !- Sun Exposure
    NoWind,                  !- Wind Exposure
    Autocalculate,           !- View Factor to Ground
    Autocalculate,           !- Number of Vertices
    4.57,15.43,0,  !- X,Y,Z ==> Vertex 1 {m}
    4.57,-4.57,0,  !- X,Y,Z ==> Vertex 2 {m}
    0,0,0,  !- X,Y,Z ==> Vertex 3 {m}
    0,10.86,0;  !- X,Y,Z ==> Vertex 4 {m}

  BuildingSurface:Detailed,
    Surface 14,              !- Name
    Wall,                    !- Surface Type
    ASHRAE 90.1-2007 ExtWall Mass ClimateZone 5,  !- Construction Name
    Thermal Zone: Story 1 East Perimeter Space,  !- Zone Name
    ,                        !- Space Name
    Outdoors,                !- Outside Boundary Condition
    ,                        !- Outside Boundary Condition Object
    SunExposed,              !- Sun Exposure
    WindExposed,             !- Wind Exposure
    Autocalculate,           !- View Factor to Ground
    Autocalculate,           !- Number of Vertices
    4.57,-4.57,3.8,  !- X,Y,Z ==> Vertex 1 {m}
    4.57,-4.57,0,  !- X,Y,Z ==> Vertex 2 {m}
    4.57,15.43,0,  !- X,Y,Z ==> Vertex 3 {m}
    4.57,15.43,3.8;  !- X,Y,Z ==> Vertex 4 {m}

  FenestrationSurface:Detailed,
    Sub Surface 5,           !- Name
    Window,                  !- Surface Type
    ASHRAE 90.1-2007 ExtWindow Metal ClimateZone 4-6,  !- Construction Name
    Surface 14,              !- Building Surface Name
    ,                        !- Outside Boundary Condition Object