
OS:Version,
  {a0dfbfd6-2b79-40c3-99a7-49ff13f83446}, !- Handle
  1.4.3;                                  !- Version Identifier

OS:SimulationControl,
  {0a0c2284-aa6c-4a54-ac42-44fb7ae3d6ee}, !- Handle
  Yes,                                    !- Do Zone Sizing Calculation
  Yes,                                    !- Do System Sizing Calculation
  ,                                       !- Do Plant Sizing Calculation
  No,                                     !- Run Simulation for Sizing Periods
  Yes;                                    !- Run Simulation for Weather File Run Periods

OS:Timestep,
  {b4660aca-d9cb-4373-9758-4834087f5078}, !- Handle
  6;                                      !- Number of Timesteps per Hour

OS:RunPeriod,
  {ae625a74-ae33-48f6-a5ce-656707c2535f}, !- Handle
  Run Period 1,                           !- Name
  1,                                      !- Begin Month
  1,                                      !- Begin Day of Month
  12,                                     !- End Month
  31,                                     !- End Day of Month
  No,                                     !- Use Weather File Holidays and Special Days
  No,                                     !- Use Weather File Daylight Saving Period
  No,                                     !- Apply Weekend Holiday Rule
  Yes,                                    !- Use Weather File Rain Indicators
  Yes,                                    !- Use Weather File Snow Indicators
  1;                                      !- Number of Times Runperiod to be Repeated

OS:SurfaceConvectionAlgorithm:Inside,
  {2acafe4f-07fe-42ca-b1a0-37829ba869f0}, !- Handle
  TARP;                                   !- Algorithm

OS:SurfaceConvectionAlgorithm:Outside,
  {d27f0b19-5f45-4554-8b95-cace6703a202}, !- Handle
  DOE-2;                                  !- Algorithm

OS:HeatBalanceAlgorithm,
  {aecdad3d-a023-4132-97f1-7d0ddc1c7509}, !- Handle
  ConductionTransferFunction,             !- Algorithm
  200;                                    !- Surface Temperature Upper Limit {F}

OS:ZoneAirHeatBalanceAlgorithm,
  {2f0502c1-1056-40fe-8968-d6f02b33bc3c}, !- Handle
  AnalyticalSolution;                     !- Algorithm

OS:ConvergenceLimits,
  {2acd9d58-3fc6-4508-a493-c442069b2e17}; !- Handle

OS:ShadowCalculation,
  {65a5c1be-d452-4d37-a63f-4825f5390c7b}, !- Handle
  7,                                      !- Calculation Frequency
  15000;                                  !- Maximum Figures in Shadow Overlap Calculations

OS:Site,
  {216dd8f3-f045-4f88-97e3-79ac8c165b37}, !- Handle
  Site 1,                                 !- Name
  41.77,                                  !- Latitude {deg}
  -87.75,                                 !- Longitude {deg}
  -6,                                     !- Time Zone {hr}
  190,                                    !- Elevation {m}
  ;                                       !- Terrain

OS:Site:GroundTemperature:BuildingSurface,
  {50fc6b84-4756-48ee-b121-b06839e584ef}, !- Handle
  19.527,                                 !- January Ground Temperature {C}
  19.502,                                 !- February Ground Temperature {C}
  19.536,                                 !- March Ground Temperature {C}
  19.598,                                 !- April Ground Temperature {C}
  20.002,                                 !- May Ground Temperature {C}
  21.64,                                  !- June Ground Temperature {C}
  22.225,                                 !- July Ground Temperature {C}
  22.375,                                 !- August Ground Temperature {C}
  21.449,                                 !- September Ground Temperature {C}
  20.121,                                 !- October Ground Temperature {C}
  19.802,                                 !- November Ground Temperature {C}
  19.633;                                 !- December Ground Temperature {C}

OS:Site:WaterMainsTemperature,
  {69c001a5-03da-4473-a175-7d7f5f0c6082}, !- Handle
  Correlation,                            !- Calculation Method
  ,                                       !- Temperature Schedule Name
  9.69,                                   !- Annual Average Outdoor Air Temperature {C}
  28.1;                                   !- Maximum Difference In Monthly Average Outdoor Air Temperatures {deltaC}

OS:SizingPeriod:DesignDay,
  {ac4c4d24-9844-4575-b66e-ea31097d399b}, !- Handle
  Sizing Period Design Day 1,             !- Name
  -20.6,                                  !- Maximum Dry-Bulb Temperature {C}
  0,                                      !- Daily Dry-Bulb Temperature Range {deltaC}
  -20.6,                                  !- Humidity Indicating Conditions at Maximum Dry-Bulb {BasedOnField A3}
  99063,                                  !- Barometric Pressure {Pa}
  4.9,                                    !- Wind Speed {m/s}
  270,                                    !- Wind Direction {deg}
  0,                                      !- Sky Clearness
  0,                                      !- Rain Indicator
  0,                                      !- Snow Indicator
  21,                                     !- Day of Month
  1,                                      !- Month
  WinterDesignDay,                        !- Day Type
  0,                                      !- Daylight Saving Time Indicator
  WetBulb,                                !- Humidity Indicating Type
  ,                                       !- Humidity Indicating Day Schedule Name
  DefaultMultipliers,                     !- Dry-Bulb Temperature Range Modifier Type
  ,                                       !- Dry-Bulb Temperature Range Modifier Schedule Name
  AshraeClearSky;                         !- Solar Model Indicator

OS:SizingPeriod:DesignDay,
  {744d3c1d-6b05-4b77-b260-08261d8af815}, !- Handle
  Sizing Period Design Day 2,             !- Name
  33.2,                                   !- Maximum Dry-Bulb Temperature {C}
  10.7,                                   !- Daily Dry-Bulb Temperature Range {deltaC}
  23.8,                                   !- Humidity Indicating Conditions at Maximum Dry-Bulb {BasedOnField A3}
  99063,                                  !- Barometric Pressure {Pa}
  5.3,                                    !- Wind Speed {m/s}
  230,                                    !- Wind Direction {deg}
  1,                                      !- Sky Clearness
  0,                                      !- Rain Indicator
  0,                                      !- Snow Indicator
  21,                                     !- Day of Month
  7,                                      !- Month
  SummerDesignDay,                        !- Day Type
  0,                                      !- Daylight Saving Time Indicator
  WetBulb,                                !- Humidity Indicating Type
  ,                                       !- Humidity Indicating Day Schedule Name
  DefaultMultipliers,                     !- Dry-Bulb Temperature Range Modifier Type
  ,                                       !- Dry-Bulb Temperature Range Modifier Schedule Name
  AshraeClearSky;                         !- Solar Model Indicator

OS:ScheduleTypeLimits,
  {40d51b96-2d0b-4d89-9496-d2ece32555cc}, !- Handle
  Temperature,                            !- Name
  -60,                                    !- Lower Limit Value {BasedOnField A4}
  200,                                    !- Upper Limit Value {BasedOnField A4}
  CONTINUOUS,                             !- Numeric Type
  Temperature;                            !- Unit Type

OS:DefaultScheduleSet,
  {7945df5b-ed1e-406c-b2a1-46cb0d8b3c5d}, !- Handle
  Default Schedules,                      !- Name
  ,                                       !- Hours of Operation Schedule Name
  {d882b7ec-8a01-4ce2-b06b-17f3afb22897}, !- Number of People Schedule Name
  {6b45f2fc-9773-4892-b8b3-cb63ed0ce43f}, !- People Activity Level Schedule Name
  {dc89768f-dfd7-4f81-98ae-c732afe97e52}, !- Lighting Schedule Name
  {ecd7a2a5-df12-4449-915f-49281c7c5225}, !- Electric Equipment Schedule Name
  {0699521a-d4ac-4fbc-bc34-670fbeb379a9}, !- Gas Equipment Schedule Name
  {2112fcd0-ab98-41af-8ba3-f23770dce398}, !- Hot Water Equipment Schedule Name
  {7b7cc785-5d29-46c1-9503-759655c97f2c}, !- Infiltration Schedule Name
  ,                                       !- Steam Equipment Schedule Name
  ;                                       !- Other Equipment Schedule Name

OS:Schedule:Ruleset,
  {d882b7ec-8a01-4ce2-b06b-17f3afb22897}, !- Handle
  Medium Office Number of People Schedule, !- Name
  {f46f8626-cd7d-4892-b37f-2729677e6e09}, !- Schedule Type Limits Name
  {88217366-2630-417c-b7d6-3df9f076a31b}, !- Default Day Schedule Name
  {056a2fe2-1322-44d5-8030-65fd323e0586}; !- Summer Design Day Schedule Name

OS:Schedule:Day,
  {88217366-2630-417c-b7d6-3df9f076a31b}, !- Handle
  Medium Office Number of People All Other Days Schedule, !- Name
  {f46f8626-cd7d-4892-b37f-2729677e6e09}, !- Schedule Type Limits Name
  ,                                       !- Interpolate to Timestep
  24,                                     !- Hour 1
  0,                                      !- Minute 1
  0;                                      !- Value Until Time 1

OS:Schedule:Day,
  {f3c6f06d-d42c-4f60-90b1-3b3f81f50d04}, !- Handle
  Medium Office Number of People Summer Design Day Schedule, !- Name
  ,                                       !- Schedule Type Limits Name
  ,                                       !- Interpolate to Timestep
  6,                                      !- Hour 1
  0,                                      !- Minute 1
  0,                                      !- Value Until Time 1
  22,                                     !- Hour 2
  0,                                      !- Minute 2
  1,                                      !- Value Until Time 2
  24,                                     !- Hour 3
  0,                                      !- Minute 3
  0.05;                                   !- Value Until Time 3

OS:Schedule:Day,
  {056a2fe2-1322-44d5-8030-65fd323e0586}, !- Handle
  Medium Office Number of People Summer Design Day Schedule 1, !- Name
  {f46f8626-cd7d-4892-b37f-2729677e6e09}, !- Schedule Type Limits Name
  ,                                       !- Interpolate to Timestep
  6,                                      !- Hour 1
  0,                                      !- Minute 1
  0,                                      !- Value Until Time 1
  22,                                     !- Hour 2
  0,                                      !- Minute 2
  1,                                      !- Value Until Time 2
  24,                                     !- Hour 3
  0,                                      !- Minute 3
  0.05;                                   !- Value Until Time 3

OS:Schedule:Rule,
  {65e95782-6617-4df4-be75-f50e1274abdf}, !- Handle
  Medium Office Number of People Schedule Weekdays Rule, !- Name
  {d882b7ec-8a01-4ce2-b06b-17f3afb22897}, !- Schedule Ruleset Name
  1,                                      !- Rule Order
  {68a4c966-8fb4-41fc-a1d6-487d6efb4442}, !- Day Schedule Name
  ,                                       !- Apply Sunday
  Yes,                                    !- Apply Monday
  Yes,                                    !- Apply Tuesday
  Yes,                                    !- Apply Wednesday
  Yes,                                    !- Apply Thursday
  Yes;                                    !- Apply Friday

OS:Schedule:Day,
  {68a4c966-8fb4-41fc-a1d6-487d6efb4442}, !- Handle
  Medium Office Number of People Weekdays Schedule, !- Name
  {f46f8626-cd7d-4892-b37f-2729677e6e09}, !- Schedule Type Limits Name
  ,                                       !- Interpolate to Timestep
  6,                                      !- Hour 1
  0,                                      !- Minute 1
  0,                                      !- Value Until Time 1
  7,                                      !- Hour 2
  0,                                      !- Minute 2
  0.1,                                    !- Value Until Time 2
  8,                                      !- Hour 3
  0,                                      !- Minute 3
  0.2,                                    !- Value Until Time 3
  12,                                     !- Hour 4
  0,                                      !- Minute 4
  0.95,                                   !- Value Until Time 4
  13,                                     !- Hour 5
  0,                                      !- Minute 5
  0.5,                                    !- Value Until Time 5
  17,                                     !- Hour 6
  0,                                      !- Minute 6
  0.95,                                   !- Value Until Time 6
  18,                                     !- Hour 7
  0,                                      !- Minute 7
  0.7,                                    !- Value Until Time 7
  20,                                     !- Hour 8
  0,                                      !- Minute 8
  0.4,                                    !- Value Until Time 8
  22,                                     !- Hour 9
  0,                                      !- Minute 9
  0.1,                                    !- Value Until Time 9
  24,                                     !- Hour 10
  0,                                      !- Minute 10
  0.05;                                   !- Value Until Time 10

OS:Schedule:Rule,
  {194769cb-034b-4007-bef6-179e932095f9}, !- Handle
  Medium Office Number of People Schedule Saturday Rule, !- Name
  {d882b7ec-8a01-4ce2-b06b-17f3afb22897}, !- Schedule Ruleset Name
  0,                                      !- Rule Order
  {38d684c6-af45-4a0a-a4e5-98bdcd03f097}, !- Day Schedule Name
  ,                                       !- Apply Sunday
  ,                                       !- Apply Monday
  ,                                       !- Apply Tuesday
  ,                                       !- Apply Wednesday
  ,                                       !- Apply Thursday
  ,                                       !- Apply Friday
  Yes;                                    !- Apply Saturday

OS:Schedule:Day,
  {38d684c6-af45-4a0a-a4e5-98bdcd03f097}, !- Handle
  Medium Office Number of People Saturday Schedule, !- Name
  {f46f8626-cd7d-4892-b37f-2729677e6e09}, !- Schedule Type Limits Name
  ,                                       !- Interpolate to Timestep
  6,                                      !- Hour 1
  0,                                      !- Minute 1
  0,                                      !- Value Until Time 1
  8,                                      !- Hour 2
  0,                                      !- Minute 2
  0.1,                                    !- Value Until Time 2
  14,                                     !- Hour 3
  0,                                      !- Minute 3
  0.5,                                    !- Value Until Time 3
  17,                                     !- Hour 4
  0,                                      !- Minute 4
  0.1,                                    !- Value Until Time 4
  24,                                     !- Hour 5
  0,                                      !- Minute 5
  0;                                      !- Value Until Time 5

OS:ScheduleTypeLimits,
  {f46f8626-cd7d-4892-b37f-2729677e6e09}, !- Handle
  Fractional,                             !- Name
  0,                                      !- Lower Limit Value {BasedOnField A4}
  1,                                      !- Upper Limit Value {BasedOnField A4}
  Continuous;                             !- Numeric Type

OS:Schedule:Ruleset,
  {6b45f2fc-9773-4892-b8b3-cb63ed0ce43f}, !- Handle
  Medium Office People Activity Level Schedule, !- Name
  {dbed2898-5150-48c3-9688-77476242d6ed}, !- Schedule Type Limits Name
  {1be85873-2bfa-4a75-a22e-6265274042e4}; !- Default Day Schedule Name

OS:Schedule:Day,
  {1be85873-2bfa-4a75-a22e-6265274042e4}, !- Handle
  Medium Office People Activity Level All Days Schedule, !- Name
  {dbed2898-5150-48c3-9688-77476242d6ed}, !- Schedule Type Limits Name
  ,                                       !- Interpolate to Timestep
  24,                                     !- Hour 1
  0,                                      !- Minute 1
  120;                                    !- Value Until Time 1

OS:ScheduleTypeLimits,
  {dbed2898-5150-48c3-9688-77476242d6ed}, !- Handle
  ActivityLevel,                          !- Name
  0,                                      !- Lower Limit Value {BasedOnField A4}
  ,                                       !- Upper Limit Value {BasedOnField A4}
  Continuous,                             !- Numeric Type
  ActivityLevel;                          !- Unit Type

OS:Schedule:Ruleset,
  {dc89768f-dfd7-4f81-98ae-c732afe97e52}, !- Handle
  Medium Office Lighting Schedule,        !- Name
  {f46f8626-cd7d-4892-b37f-2729677e6e09}, !- Schedule Type Limits Name
  {a228f94a-2730-4a4c-982a-76c397fbf622}, !- Default Day Schedule Name
  {0e71cde1-6ccd-49f0-b527-e4ca0fe01ca6}, !- Summer Design Day Schedule Name
  {00953caf-66c4-489c-9686-aee252804836}; !- Winter Design Day Schedule Name

OS:Schedule:Day,
  {a228f94a-2730-4a4c-982a-76c397fbf622}, !- Handle
  Medium Office Lighting All Other Days Schedule, !- Name
  {f46f8626-cd7d-4892-b37f-2729677e6e09}, !- Schedule Type Limits Name
  ,                                       !- Interpolate to Timestep
  24,                                     !- Hour 1
  0,                                      !- Minute 1
  0.05;                                   !- Value Until Time 1

OS:Schedule:Day,
  {db2a6e43-c3cd-44d0-8cf4-dff305d5d75e}, !- Handle
  Medium Office Lighting Summer Design Day Schedule, !- Name
  ,                                       !- Schedule Type Limits Name
  ,                                       !- Interpolate to Timestep
  6,                                      !- Hour 1
  0,                                      !- Minute 1
  1,                                      !- Value Until Time 1
  24,                                     !- Hour 2
  0,                                      !- Minute 2
  0;                                      !- Value Until Time 2

OS:Schedule:Day,
  {0e71cde1-6ccd-49f0-b527-e4ca0fe01ca6}, !- Handle
  Medium Office Lighting Summer Design Day Schedule 1, !- Name
  {f46f8626-cd7d-4892-b37f-2729677e6e09}, !- Schedule Type Limits Name
  ,                                       !- Interpolate to Timestep
  6,                                      !- Hour 1
  0,                                      !- Minute 1
  1,                                      !- Value Until Time 1
  24,                                     !- Hour 2
  0,                                      !- Minute 2
  0;                                      !- Value Until Time 2

OS:Schedule:Day,
  {682af6be-d49e-4006-a250-cc7eb7250aa9}, !- Handle
  Medium Office Lighting Winter Design Day Schedule, !- Name
  ,                                       !- Schedule Type Limits Name
  ,                                       !- Interpolate to Timestep
  24,                                     !- Hour 1
  0,                                      !- Minute 1
  0;                                      !- Value Until Time 1

OS:Schedule:Day,
  {00953caf-66c4-489c-9686-aee252804836}, !- Handle
  Medium Office Lighting Winter Design Day Schedule 1, !- Name
  {f46f8626-cd7d-4892-b37f-2729677e6e09}, !- Schedule Type Limits Name
  ,                                       !- Interpolate to Timestep
  24,                                     !- Hour 1
  0,                                      !- Minute 1
  0;                                      !- Value Until Time 1

OS:Schedule:Rule,
  {4c0dc80b-7bf8-4da6-988c-765580b22336}, !- Handle
  Medium Office Lighting Schedule Weekdays Rule, !- Name
  {dc89768f-dfd7-4f81-98ae-c732afe97e52}, !- Schedule Ruleset Name
  1,                                      !- Rule Order
  {edb11224-8474-460e-8355-dc0a9140b7e8}, !- Day Schedule Name
  ,                                       !- Apply Sunday
  Yes,                                    !- Apply Monday
  Yes,                                    !- Apply Tuesday
  Yes,                                    !- Apply Wednesday
  Yes,                                    !- Apply Thursday
  Yes;                                    !- Apply Friday

OS:Schedule:Day,
  {edb11224-8474-460e-8355-dc0a9140b7e8}, !- Handle
  Medium Office Lighting Weekdays Schedule, !- Name
  {f46f8626-cd7d-4892-b37f-2729677e6e09}, !- Schedule Type Limits Name
  ,                                       !- Interpolate to Timestep
  5,                                      !- Hour 1
  0,                                      !- Minute 1
  0.05,                                   !- Value Until Time 1
  7,                                      !- Hour 2
  0,                                      !- Minute 2
  0.1,                                    !- Value Until Time 2
  8,                                      !- Hour 3
  0,                                      !- Minute 3
  0.3,                                    !- Value Until Time 3
  17,                                     !- Hour 4
  0,                                      !- Minute 4
  0.9,                                    !- Value Until Time 4
  18,                                     !- Hour 5
  0,                                      !- Minute 5
  0.7,                                    !- Value Until Time 5
  20,                                     !- Hour 6
  0,                                      !- Minute 6
  0.5,                                    !- Value Until Time 6
  22,                                     !- Hour 7
  0,                                      !- Minute 7
  0.3,                                    !- Value Until Time 7
  23,                                     !- Hour 8
  0,                                      !- Minute 8
  0.1,                                    !- Value Until Time 8
  24,                                     !- Hour 9
  0,                                      !- Minute 9
  0.05;                                   !- Value Until Time 9

OS:Schedule:Rule,
  {2c04c2fa-a30f-4302-bf43-c7fdfd05f62e}, !- Handle
  Medium Office Lighting Schedule Saturday Rule, !- Name
  {dc89768f-dfd7-4f81-98ae-c732afe97e52}, !- Schedule Ruleset Name
  0,                                      !- Rule Order
  {4e9c4c65-e60f-49e7-85e9-99b62226a343}, !- Day Schedule Name
  ,                                       !- Apply Sunday
  ,                                       !- Apply Monday
  ,                                       !- Apply Tuesday
  ,                                       !- Apply Wednesday
  ,                                       !- Apply Thursday
  ,                                       !- Apply Friday
  Yes;                                    !- Apply Saturday

OS:Schedule:Day,
  {4e9c4c65-e60f-49e7-85e9-99b62226a343}, !- Handle
  Medium Office Lighting Saturday Schedule, !- Name
  {f46f8626-cd7d-4892-b37f-2729677e6e09}, !- Schedule Type Limits Name
  ,                                       !- Interpolate to Timestep
  6,                                      !- Hour 1
  0,                                      !- Minute 1
  0.05,                                   !- Value Until Time 1
  8,                                      !- Hour 2
  0,                                      !- Minute 2
  0.1,                                    !- Value Until Time 2
  14,                                     !- Hour 3
  0,                                      !- Minute 3
  0.5,                                    !- Value Until Time 3
  17,                                     !- Hour 4
  0,                                      !- Minute 4
  0.15,                                   !- Value Until Time 4
  24,                                     !- Hour 5
  0,                                      !- Minute 5
  0.05;                                   !- Value Until Time 5

OS:Schedule:Ruleset,
  {ecd7a2a5-df12-4449-915f-49281c7c5225}, !- Handle
  Medium Office Electric Equipment Schedule, !- Name
  {f46f8626-cd7d-4892-b37f-2729677e6e09}, !- Schedule Type Limits Name
  {0148a785-5c77-4397-98d6-0d6dbd710b60}, !- Default Day Schedule Name
  {7fba8575-0101-4f19-90d7-bffc1c474247}, !- Summer Design Day Schedule Name
  {61ff61ee-54ce-451e-9377-69a0f466f2fa}; !- Winter Design Day Schedule Name

OS:Schedule:Day,
  {0148a785-5c77-4397-98d6-0d6dbd710b60}, !- Handle
  Medium Office Electric Equipment All Other Days Schedule, !- Name
  {f46f8626-cd7d-4892-b37f-2729677e6e09}, !- Schedule Type Limits Name
  ,                                       !- Interpolate to Timestep
  24,                                     !- Hour 1
  0,                                      !- Minute 1
  0.3;                                    !- Value Until Time 1

OS:Schedule:Day,
  {f107d25e-c13b-4de0-85a1-ea153ea2f96d}, !- Handle
  Medium Office Electric Equipment Summer Design Day Schedule, !- Name
  ,                                       !- Schedule Type Limits Name
  ,                                       !- Interpolate to Timestep
  6,                                      !- Hour 1
  0,                                      !- Minute 1
  1,                                      !- Value Until Time 1
  24,                                     !- Hour 2
  0,                                      !- Minute 2
  0;                                      !- Value Until Time 2

OS:Schedule:Day,
  {7fba8575-0101-4f19-90d7-bffc1c474247}, !- Handle
  Medium Office Electric Equipment Summer Design Day Schedule 1, !- Name
  {f46f8626-cd7d-4892-b37f-2729677e6e09}, !- Schedule Type Limits Name
  ,                                       !- Interpolate to Timestep
  6,                                      !- Hour 1
  0,                                      !- Minute 1
  1,                                      !- Value Until Time 1
  24,                                     !- Hour 2
  0,                                      !- Minute 2
  0;                                      !- Value Until Time 2

OS:Schedule:Day,
  {eb00132b-def8-4ba8-a6aa-e0fae70ff61f}, !- Handle
  Medium Office Electric Equipment Winter Design Day Schedule, !- Name
  ,                                       !- Schedule Type Limits Name
  ,                                       !- Interpolate to Timestep
  24,                                     !- Hour 1
  0,                                      !- Minute 1
  0;                                      !- Value Until Time 1

OS:Schedule:Day,
  {61ff61ee-54ce-451e-9377-69a0f466f2fa}, !- Handle
  Medium Office Electric Equipment Winter Design Day Schedule 1, !- Name
  {f46f8626-cd7d-4892-b37f-2729677e6e09}, !- Schedule Type Limits Name
  ,                                       !- Interpolate to Timestep
  24,                                     !- Hour 1
  0,                                      !- Minute 1
  0;                                      !- Value Until Time 1

OS:Schedule:Rule,
  {0c6578c3-4a2b-4ef0-b297-b3c3d2922803}, !- Handle
  Medium Office Electric Equipment Schedule Weekdays Rule, !- Name
  {ecd7a2a5-df12-4449-915f-49281c7c5225}, !- Schedule Ruleset Name
  1,                                      !- Rule Order
  {818b572e-75be-4bf4-bfac-6a4621d9d297}, !- Day Schedule Name
  ,                                       !- Apply Sunday
  Yes,                                    !- Apply Monday
  Yes,                                    !- Apply Tuesday
  Yes,                                    !- Apply Wednesday
  Yes,                                    !- Apply Thursday
  Yes;                                    !- Apply Friday

OS:Schedule:Day,
  {818b572e-75be-4bf4-bfac-6a4621d9d297}, !- Handle
  Medium Office Electric Equipment Weekdays Schedule, !- Name
  {f46f8626-cd7d-4892-b37f-2729677e6e09}, !- Schedule Type Limits Name
  ,                                       !- Interpolate to Timestep
  8,                                      !- Hour 1
  0,                                      !- Minute 1
  0.4,                                    !- Value Until Time 1
  12,                                     !- Hour 2
  0,                                      !- Minute 2
  0.9,                                    !- Value Until Time 2
  13,                                     !- Hour 3
  0,                                      !- Minute 3
  0.8,                                    !- Value Until Time 3
  17,                                     !- Hour 4
  0,                                      !- Minute 4
  0.9,                                    !- Value Until Time 4
  18,                                     !- Hour 5
  0,                                      !- Minute 5
  0.8,                                    !- Value Until Time 5
  20,                                     !- Hour 6
  0,                                      !- Minute 6
  0.6,                                    !- Value Until Time 6
  22,                                     !- Hour 7
  0,                                      !- Minute 7
  0.5,                                    !- Value Until Time 7
  24,                                     !- Hour 8
  0,                                      !- Minute 8
  0.4;                                    !- Value Until Time 8

OS:Schedule:Rule,
  {d3e8a3b8-9368-4b00-b234-47b8a5df94a1}, !- Handle
  Medium Office Electric Equipment Schedule Saturday Rule, !- Name
  {ecd7a2a5-df12-4449-915f-49281c7c5225}, !- Schedule Ruleset Name
  0,                                      !- Rule Order
  {b49d411d-ff16-4ce0-9d0c-5b55c9270bce}, !- Day Schedule Name
  ,                                       !- Apply Sunday
  ,                                       !- Apply Monday
  ,                                       !- Apply Tuesday
  ,                                       !- Apply Wednesday