!IDD_Version 1.1.0
! *****************************************************************************
! This file is the Input Data Dictionary (IDD) for OpenStudio Model.
!
! Please see the EnergyPlus IDD Header for data formatting information. In
! addition to the syntax listed there, we add the following syntax items:
!
! Field-level comments:
!
!  \type handle      The field holds the UUID of the IDF object. This is used in lieu of names
!                    to keep track of references. It also enables \object-list AllObjects, which
!                    can point to any object.
!
!  \type url         The field references a file on at some location.  The reference
!                    may be a relative file path (in which case a set of search locations
!                    are used to find the file at run time), or it may be an 
!                    absolute path to a local file.
!
! Object-level comments:
!
!  \url-object       Use if the object includes one or more fields of url type.
!
! Grouping comments:
!
! The groups in the OpenStudio IDD represent high level groupings of similar objects.
! ModelEditor displays un-parented objects in their corresponding group, where each group
! is collapsible.
!
! **************************************************************************

\group OpenStudio Core

OS:Version,
       \unique-object
       \required-object
       \format singleLine
       \min-fields 1
  A1, \field Handle
       \type handle
       \required-field
  A2; \field Version Identifier
       \type alpha
       \default 0.7.5

OS:ComponentData,
       \memo Defines the meta-data and contents of a Component, that is, a
       \memo subset of an OpenStudio Model.
       \extensible:1
       \min-fields 7
  A1, \field Handle
       \type handle
       \required-field
  A2, \field Name
       \note This should be the name of the Component as listed in the
       \note Component Library.
       \type alpha
       \required-field
       \reference ComponentNames
  A3, \field UUID
       \note This is a UUID that follows the Component throughout its life,
       \note both in Models and in the Component Library.
       \type alpha
       \required-field
  A4, \field Version UUID
       \note This UUID should be changed whenever the Component is modified.
       \type alpha
       \required-field
  A5, \field Creation Timestamp
       \note Unix timestamp from January 1, 1970 00:00 GMT, in seconds.
       \type integer
  A6, \field Version Timestamp
       \note Unix timestamp from January 1, 1970 00:00 GMT, in seconds.
       \type integer
  A7; \field Name of Object
       \note The first object listed should be the primary object, which
       \note indicates the overall Component type.
       \type object-list
       \required-field
       \begin-extensible
       \object-list AllObjects

\group OpenStudio Simulation

OS:ConvergenceLimits,
       \unique-object
       \min-fields 1
  A1, \field Handle
       \type handle
       \required-field
  N1, \field Minimum System Timestep
       \note 0 sets the minimum to the zone timestep (ref: Timestep)
       \note 1 is normal (ratchet down to 1 minute)
       \note setting greater than zone timestep (in minutes) will effectively set to zone timestep
       \type integer
       \units minutes
       \minimum 0
       \maximum 60
  N2, \field Maximum HVAC Iterations
       \type integer
       \minimum 1
       \default 20
  N3, \field Minimum Plant Iterations
       \note Controls the minimum number of plant system solver iterations within a single HVAC iteration
       \note Larger values will increase runtime but might improve solution accuracy for complicated plant systems
       \note Complex plants include: several interconnected loops, heat recovery, thermal load following generators, etc.
       \type integer
       \minimum 1
       \default 2
  N4; \field Maximum Plant Iterations
       \note Controls the maximum number of plant system solver iterations within a single HVAC iteration
       \note Smaller values might decrease runtime but could decrease solution accuracy for complicated plant systems
       \type integer
       \minimum 2
       \default 8

OS:ProgramControl,
       \memo used to support various efforts in time reduction for simulation including threading
  A1, \field Handle
       \type handle
       \required-field
  N1; \field Number of Threads Allowed
       \type integer
       \minimum 0
       \note This is currently used only in the Interior Radiant Exchange module -- view factors on # surfaces
       \note if value is 0, then maximum number allowed will be used.

OS:HeatBalanceAlgorithm,
       \memo Determines which Heat Balance Algorithm will be used ie.
       \memo CTF (Conduction Transfer Functions),
       \memo EMPD (Effective Moisture Penetration Depth with Conduction Transfer Functions).
       \memo Advanced/Research Usage: CondFD (Conduction Finite Difference)
       \memo Advanced/Research Usage: ConductionFiniteDifferenceSimplified
       \memo Advanced/Research Usage: HAMT (Combined Heat And Moisture Finite Element)
       \unique-object
       \format singleLine
       \min-fields 1
  A1, \field Handle
       \type handle
       \required-field
  A2, \field Algorithm
       \type choice
       \default ConductionTransferFunction
       \key ConductionTransferFunction
       \key MoisturePenetrationDepthConductionTransferFunction
       \key ConductionFiniteDifference
       \key CombinedHeatAndMoistureFiniteElement
  N1, \field Surface Temperature Upper Limit
       \type real
       \units F
       \minimum 200
       \default 200.0
  N2, \field Minimum Surface Convection Heat Transfer Coefficient Value
       \type real
       \units W/m2-K
       \minimum> 0
       \default 0.1
  N3; \field Maximum Surface Convection Heat Transfer Coefficient Value
       \type real
       \units W/m2-K
       \minimum 1
       \default 1000

OS:RunPeriod,
      \unique-object
      \min-fields 12
  A1, \field Handle
       \type handle
       \required-field
  A2, \field Name
       \note descriptive name (used in reporting mainly)
       \note if blank, weather file title is used.  if not blank, must be unique
       \note EnergyPlus Start Year field is captured in OS:YearDescription object
       \type alpha
       \reference RunPeriods
       \reference RunPeriodsAndDesignDays
  N1, \field Begin Month
       \type integer
       \required-field
       \minimum 1
       \maximum 12
  N2, \field Begin Day of Month
       \type integer
       \required-field
       \minimum 1
       \maximum 31
  N3, \field End Month
       \type integer
       \required-field
       \minimum 1
       \maximum 12
  N4, \field End Day of Month
       \type integer
       \required-field
       \minimum 1
       \maximum 31
  A3, \field Use Weather File Holidays and Special Days
       \note If yes or blank, use holidays as specified on Weatherfile.
       \note If no, do not use the holidays specified on the Weatherfile.
       \note Note: You can still specify holidays/special days using the RunPeriodControl:SpecialDays object(s).
       \type choice
       \default Yes
       \key Yes
       \key No
  A4, \field Use Weather File Daylight Saving Period
       \note If yes or blank, use daylight saving period as specified on Weatherfile.
       \note If no, do not use the daylight saving period as specified on the Weatherfile.
       \type choice
       \default Yes
       \key Yes
       \key No
  A5, \field Apply Weekend Holiday Rule
       \note if yes and single day holiday falls on weekend, "holiday" occurs on following Monday
       \type choice
       \default No
       \key Yes
       \key No
  A6, \field Use Weather File Rain Indicators
       \type choice
       \default Yes
       \key Yes
       \key No
  A7, \field Use Weather File Snow Indicators
       \type choice
       \default Yes
       \key Yes
       \key No
  N5; \field Number of Times Runperiod to be Repeated
       \type integer
       \minimum 1
       \default 1

OS:RunPeriodControl:DaylightSavingTime,
       \memo This object sets up the daylight saving time period for any RunPeriod.
       \memo Ignores any daylight saving time period on the weather file and uses this definition.
       \memo These are not used with SizingPeriod:DesignDay objects.
       \memo Use with SizingPeriod:WeatherFileDays object can be controlled in that object.
       \unique-object
       \min-fields 3
  A1, \field Handle
       \type handle
       \required-field
  A2, \field Start Date
       \type alpha
       \required-field
  A3; \field End Date
       \note Dates can be several formats:
       \note <number>/<number>  (month/day)
       \note <number> <Month>
       \note <Month> <number>
       \note <Nth> <Weekday> in <Month)
       \note Last <WeekDay> in <Month>
       \note <Month> can be January, February, March, April, May, June, July, August, September, October, November, December
       \note Months can be the first 3 letters of the month
       \note <Weekday> can be Sunday, Monday, Tuesday, Wednesday, Thursday, Friday, Saturday
       \note <Nth> can be 1 or 1st, 2 or 2nd, etc. up to 5(?)
       \type alpha
       \required-field

OS:RunPeriodControl:SpecialDays,
       \memo This object sets up holidays/special days to be used during weather file
       \memo run periods.  (These are not used with SizingPeriod:* objects.)
       \memo Depending on the value in the run period, days on the weather file may also
       \memo be used.  However, the weather file specification will take precedence over
       \memo any specification shown here.  (No error message on duplicate days or overlapping
       \memo days).
       \min-fields 5
  A1, \field Handle
       \type handle
       \required-field
  A2, \field Name
       \type alpha
       \required-field
  A3, \field Start Date
       \note Dates can be several formats:
       \note <number>/<number>  (month/day)
       \note <number> <Month>
       \note <Month> <number>
       \note <Nth> <Weekday> in <Month)
       \note Last <WeekDay> in <Month>
       \note <Month> can be January, February, March, April, May, June, July, August, September, October, November, December
       \note Months can be the first 3 letters of the month
       \note <Weekday> can be Sunday, Monday, Tuesday, Wednesday, Thursday, Friday, Saturday
       \note <Nth> can be 1 or 1st, 2 or 2nd, etc. up to 5(?)
       \type alpha
       \required-field
  N1, \field Duration
       \type real
       \units days
       \minimum 1
       \maximum 366
       \default 1
  A4; \field Special Day Type
       \note Special Day Type selects the schedules appropriate for each day so labeled
       \type choice
       \default Holiday
       \key Holiday
       \key SummerDesignDay
       \key WinterDesignDay
       \key CustomDay1
       \key CustomDay2

OS:ShadowCalculation,
       \unique-object
       \min-fields 2
  A1, \field Handle
       \type handle
       \required-field
  N1, \field Calculation Frequency
       \note 0=Use Default Periodic Calculation|<else> calculate every <value> day
       \note only really applicable to RunPeriods
       \note warning issued if >31
       \type integer
       \minimum 1
       \default 20
  N2, \field Maximum Figures in Shadow Overlap Calculations
       \note Number of allowable figures in shadow overlap calculations
       \type integer
       \minimum 200
       \default 15000
  A2, \field Polygon Clipping Algorithm
       \note Advanced Feature.  Internal default is SutherlandHodgman
       \note Refer to InputOutput Reference and Engineering Reference for more information
       \type choice
       \key ConvexWeilerAtherton
       \key SutherlandHodgman
  A3; \field Sky Diffuse Modeling Algorithm
       \note Advanced Feature.  Internal default is SimpleSkyDiffuseModeling
       \note If you have shading elements that change transmittance over the
       \note year, you may wish to choose the detailed method.
       \note Refer to InputOutput Reference and Engineering Reference for more information
       \type choice
       \key SimpleSkyDiffuseModeling
       \key DetailedSkyDiffuseModeling

OS:SimulationControl,
       \memo Note that the following 3 fields are related to the Sizing:Zone, Sizing:System,
       \memo and Sizing:Plant objects.  Having these fields set to Yes but no corresponding
       \memo Sizing object will not cause the sizing to be done. However, having any of these
       \memo fields set to No, the corresponding Sizing object is ignored.
       \memo Note also, if you want to do system sizing, you must also do zone sizing in the same
       \memo run or an error will result.
       \unique-object
       \min-fields 1
  A1, \field Handle
       \type handle
       \required-field
  A2, \field Do Zone Sizing Calculation
       \note If Yes, Zone sizing is accomplished from corresponding Sizing:Zone objects
       \note and autosize fields.
       \type choice
       \default No
       \key Yes
       \key No
  A3, \field Do System Sizing Calculation
       \note If Yes, System sizing is accomplished from corresponding Sizing:System objects
       \note and autosize fields.
       \note If Yes, Zone sizing (previous field) must also be Yes.
       \type choice
       \default No
       \key Yes
       \key No
  A4, \field Do Plant Sizing Calculation
       \note If Yes, Plant sizing is accomplished from corresponding Sizing:Plant objects
       \note and autosize fields.
       \type choice
       \default No
       \key Yes
       \key No
  A5, \field Run Simulation for Sizing Periods
       \note If Yes, SizingPeriod objects are executed and results from those may be displayed..
       \type choice
       \default Yes
       \key Yes
       \key No
  A6, \field Run Simulation for Weather File Run Periods
       \note If Yes, RunPeriod objects are executed and results from those may be displayed..
       \type choice
       \default Yes
       \key Yes
       \key No
  N1, \field Loads Convergence Tolerance Value
       \note Loads Convergence Tolerance Value is a fraction of load
       \type real
       \minimum> 0
       \maximum 0.5
       \default .04
  N2, \field Temperature Convergence Tolerance Value
       \type real
       \units deltaC
       \minimum> 0
       \maximum 0.5
       \default .4
  A7, \field Solar Distribution
       \note MinimalShadowing | FullExterior | FullInteriorAndExterior | FullExteriorWithReflections | FullInteriorAndExteriorWithReflections
       \type choice
       \default FullExterior
       \key MinimalShadowing
       \key FullExterior
       \key FullInteriorAndExterior
       \key FullExteriorWithReflections
       \key FullInteriorAndExteriorWithReflections
  N3, \field Maximum Number of Warmup Days
       \note EnergyPlus will only use as many warmup days as needed to reach convergence tolerance.
       \note This field's value should NOT be set less than 25.
       \type integer
       \minimum> 0
       \default 25
  N5; \field Minimum Number of Warmup Days
       \note The minimum number of warmup days that produce enough temperature and flux history
       \note to start EnergyPlus simulation for all reference buildings was suggested to be 6.
       \note When this field is greater than the maximum warmup days defined previous field
       \note the maximum number of warmup days will be reset to the minimum value entered here.
       \note Warmup days will be set to be the value you entered when it is less than the default 6.
       \type integer
       \minimum> 0
       \default 6

OS:Sizing:Parameters,
       \unique-object
       \min-fields 2
  A1, \field Handle
       \type handle
       \required-field
  N1, \field Heating Sizing Factor
       \type real
       \minimum> 0
       \default 1.0
  N2, \field Cooling Sizing Factor
       \type real
       \minimum> 0
       \default 1.0
  N3; \field Timesteps in Averaging Window
       \note blank => set the timesteps in averaging window to
       \note Number of Timesteps per Hour resulting in a 1 hour averaging window
       \note default is number of timesteps for 1 hour averaging window
       \type integer
       \minimum 1

OS:SurfaceConvectionAlgorithm:Inside,
       \memo Default indoor surface heat transfer convection algorithm to be used for all zones
       \unique-object
       \format singleLine
       \min-fields 2
  A1, \field Handle
       \type handle
       \required-field
  A2; \field Algorithm
       \note Simple = constant value natural convection (ASHRAE)
       \note TARP = variable natural convection based on temperature difference (ASHRAE, Walton)
       \note CeilingDiffuser = ACH-based forced and mixed convection correlations
       \note for ceiling diffuser configuration with simple natural convection limit
       \note AdaptiveConvectionAlgorithm = dynamic selection of convection models based on conditions
       \type choice
       \default TARP
       \key Simple
       \key TARP
       \key CeilingDiffuser
       \key AdaptiveConvectionAlgorithm

OS:SurfaceConvectionAlgorithm:Outside,
       \memo Default outside surface heat transfer convection algorithm to be used for all zones
       \unique-object
       \format singleLine
       \min-fields 2
  A1, \field Handle
       \type handle
       \required-field
  A2; \field Algorithm
       \note SimpleCombined = Combined radiation and convection coefficient using simple ASHRAE model
       \note TARP = correlation from models developed by ASHRAE, Walton, and Sparrow et. al.
       \note MoWiTT = correlation from measurements by Klems and Yazdanian for smooth surfaces
       \note DOE-2 = correlation from measurements by Klems and Yazdanian for rough surfaces
       \note AdaptiveConvectionAlgorithm = dynamic selection of correlations based on conditions
       \type choice
       \default DOE-2
       \key SimpleCombined
       \key TARP
       \key MoWiTT
       \key DOE-2
       \key AdaptiveConvectionAlgorithm

OS:Timestep,
       \unique-object
       \format singleLine
       \min-fields 2
  A1, \field Handle
       \type handle
       \required-field
  N1; \field Number of Timesteps per Hour
       \note Number in hour: normal validity 4 to 60: 6 suggested
       \note Must be evenly divisible into 60
       \note Allowable values include 1, 2, 3, 4, 5, 6, 10, 12, 15, 20, 30, and 60
       \note Normal 6 is mimimum as lower values may cause inaccuracies
       \note A minimum value of 20 is suggested for both ConductionFiniteDifference
       \note and CombinedHeatAndMoistureFiniteElement surface heat balance alogorithms
       \note A minimum of 12 is suggested for simulations involving a Vegetated Roof (Material:RoofVegetation).
       \type integer
       \minimum 1
       \maximum 60
       \default 6

OS:YearDescription,
       \unique-object
       \min-fields 1
  A1, \field Handle
       \type handle
       \required-field
  A2, \field Calendar Year
       \type integer
  A3, \field Day of Week for Start Day
       \note Not used if calendar year is given
       \note =<blank - use WeatherFile>|Sunday|Monday|Tuesday|Wednesday|Thursday|Friday|Saturday];
       \type choice
       \default UseWeatherFile
       \key Sunday
       \key Monday
       \key Tuesday
       \key Wednesday
       \key Thursday
       \key Friday
       \key Saturday
       \key UseWeatherFile
  A4; \field Is Leap Year
       \note Not used if calendar year is given
       \type choice
       \default No
       \key Yes
       \key No

OS:ZoneAirContaminantBalance,
       \memo Determines which contaminant concentration will be simulates.
       \unique-object
       \format singleLine
       \min-fields 1
  A1, \field Handle
       \type handle
       \required-field
  A2, \field Carbon Dioxide Concentration
       \note If Yes, CO2 simulation will be performed.
       \type choice
       \default No
       \key Yes
       \key No
  A3; \field Outdoor Carbon Dioxide Schedule Name
       \note Schedule values should be in parts per million (ppm)
       \type object-list
       \object-list ScheduleNames

OS:ZoneAirHeatBalanceAlgorithm,
       \memo Determines which algorithm will be used to solve the zone air heat balance.
       \unique-object
       \format singleLine
       \min-fields 1
  A1, \field Handle
       \type handle
       \required-field
  A2; \field Algorithm
       \type choice
       \default ThirdOrderBackwardDifference
       \key ThirdOrderBackwardDifference
       \key AnalyticalSolution
       \key EulerMethod

OS:ZoneCapacitanceMultiplier:ResearchSpecial,
       \memo Multiplier altering the relative capacitance of the air compared to an empty zone
       \unique-object
       \format singleLine
       \min-fields 4
  A1, \field Handle
       \type handle
       \required-field
  N1, \field Temperature Capacity Multiplier
       \note Used to alter the capacitance of zone air with respect to heat or temperature
       \type real
       \minimum> 0
       \default 1.0
  N2, \field Humidity Capacity Multiplier
       \note Used to alter the capacitance of zone air with respect to moisture or humidity ratio
       \type real
       \minimum> 0
       \default 1.0
  N3; \field Carbon Dioxide Capacity Multiplier
       \note Used to alter the capacitance of zone air with respect to zone air contaminant concentration
       \type real
       \minimum> 0
       \default 1.0

OS:RadianceParameters,
       \memo Radiance simulation parameters
       \unique-object
  A1, \field Handle
       \type handle
       \required-field
  N1, \field Accumulated Rays per Record
       \note accumulated rays per record, -c option to rcontrib
       \note The -c option tells rcontrib how  many  rays  to  accumulate  for  each
       \note record.  The default value is 1, meaning a full record will be produced
       \note for each input ray.  For values greater than 1, contributions  will  be
       \note averaged together over the given number of input rays.  
       \type integer
       \minimum 1
       \default 1
  N2, \field Direct Threshold
       \note direct sampling threshold, -dt option to rtrace/rpict. Sets the direct threshold to frac. 
       \note Shadow testing will stop when the potential contribution of at least the next and at most 
       \note all remaining light source samples is less than this fraction of the accumulated value. 
       \note The remaining light source contributions are approximated statistically. A value of zero 
       \note means that all light source samples will be tested for shadow.
       \type real
       \minimum 0.0
       \default 0.0
  N3, \field Direct Certainty
       \note direct certainty, -dc option to rtrace/rpict.
       \note Sets the direct certainty to frac. A value of one guarantees that the absolute 
       \note accuracy of the direct calculation will be equal to or better than that given 
       \note in the -dt specification. A value of zero only insures that all shadow lines 
       \note resulting in a contrast change greater than the -dt specification will be calculated.
       \type real
       \minimum 0.0
       \default 1.0
  N4, \field Direct Jitter
       \note direct jitter, -dj option to rtrace/rpict.
       \note Sets the direct certainty to frac. A value of one guarantees that the absolute 
       \note accuracy of the direct calculation will be equal to or better than that given 
       \note in the -dt specification. A value of zero only insures that all shadow lines 
       \note resulting in a contrast change greater than the -dt specification will be calculated.
       \type real
       \minimum 0.0
       \default 1.0
  N5, \field Direct Pretest
       \note direct jitter, -dp option to rtrace/rpict.
       \note Set the secondary source presampling density to D. This is the number of 
       \note samples per steradian that will be used to determine ahead of time whether 
       \note or not it is worth following shadow rays through all the reflections and/or 
       \note transmissions associated with a secondary source path. A value of 0 means that 
       \note the full secondary source path will always be tested for shadows if it is tested at all. 
       \type real
       \minimum 0.0
       \default 1.0
  N6, \field Ambient Bounces VMX
       \note ambient bounces, -ab option to rtrace/rpict.
       \note Set the number of ambient bounces to N. This is the maximum number of diffuse 
       \note bounces computed by the indirect calculation. A value of zero implies no indirect calculation.
       \note This is for view matrix (VMX) calculations with rcontrib.
       \type integer
       \minimum 0
       \default 6
  N7, \field Ambient Bounces DMX
       \note ambient bounces, -ab option to rtrace/rpict.
       \note Set the number of ambient bounces to N. This is the maximum number of diffuse 
       \note bounces computed by the indirect calculation. A value of zero implies no indirect calculation.
       \note This is for daylight matrix (DMX) calculations with rcontrib, and classic renderings with rpict.
       \type integer
       \minimum 0
       \default 2
  N8, \field Ambient Divisions VMX
       \note ambient bounces, -ad option to rtrace/rpict.
       \note Set the number of ambient divisions to N. The error in the Monte Carlo 
       \note calculation of indirect illuminance will be inversely proportional to the 
       \note square root of this number. A value of zero implies no indirect calculation.
       \note This is for view matrix (VMX) calculations with rcontrib.
       \type integer
       \minimum 0
       \default 4050
  N9, \field Ambient Divisions DMX
       \note ambient bounces, -ad option to rtrace/rpict.
       \note Set the number of ambient divisions to N. The error in the Monte Carlo 
       \note calculation of indirect illuminance will be inversely proportional to the 
       \note square root of this number. A value of zero implies no indirect calculation.
       \note This is for daylight matrix (DMX) calculations with rcontrib, and classic renderings with rpict.
       \type integer
       \minimum 0
       \default 512
  N10, \field Ambient Supersamples
       \note ambient supersamples, -as option to rtrace/rpict.
       \note Set the number of ambient divisions to N. The error in the Monte Carlo 
       \note calculation of indirect illuminance will be inversely proportional to the 
       \note square root of this number. A value of zero implies no indirect calculation.
       \type integer
       \minimum 0
       \default 256
  N11, \field Limit Weight VMX
       \note limit weight, -lw option to rtrace/rpict.
       \note Limit the weight of each ray to a minimum of frac. During ray-tracing, a 
       \note record is kept of the estimated contribution (weight) a ray would have in 
       \note the image. If this weight is less than the specified minimum and the -lr 
       \note setting (above) is positive, the ray is not traced. Otherwise, Russian 
       \note roulette is used to continue rays with a probability equal to the ray weight 
       \note divided by the given frac. (Ideally, this value is the -ad value^-1 for VMX calcs)
       \type real
       \minimum 0.0
       \default 0.001
  N12, \field Limit Weight DMX
       \note limit weight, -lw option to rtrace/rpict.
       \note Limit the weight of each ray to a minimum of frac. During ray-tracing, a 
       \note record is kept of the estimated contribution (weight) a ray would have in 
       \note the image. If this weight is less than the specified minimum and the -lr 
       \note setting (above) is positive, the ray is not traced. Otherwise, Russian 
       \note roulette is used to continue rays with a probability equal to the ray weight 
       \note divided by the given frac. 
       \type real
       \default 0.001
  N13, \field Klems Sampling Density
       \note number of rays per outgoing Klems direction, -c option to rcontrib.
       \note Sets the Klems sampling density for daylight matrix calculations. 
       \type integer
       \default 500
  A2; \field Sky Discretization Resolution
       \note number of rays per outgoing Klems direction, -m:n option to rcontrib.
       \note Sets sky discretization resolution for daylight coefficient calculations. 
       \type choice
       \default 146
       \key 146
       \key 578
       \key 2306

\group OpenStudio Site

OS:ClimateZones,
       \unique-object
       \extensible:4
       \min-fields 7
  A1, \field Handle
       \type handle
       \required-field
  A2, \field Active Institution
       \type alpha
       \default ASHRAE
  N1, \field Active Year
       \type integer
       \minimum 0
       \default 2006
  A3, \field Climate Zone Institution Name
       \type alpha
       \begin-extensible
       \default ASHRAE
  A4, \field Climate Zone Document Name
       \type alpha
       \default ANSI/ASHRAE Standard 169
  N2, \field Climate Zone Document Year
       \type integer
       \minimum 0
       \default 2006
  A5; \field Climate Zone Value
       \type alpha
       \required-field

OS:Site,
       \unique-object