
OS:Version,
  {9f1471e6-8714-4ec0-a7bf-a36c72300f17}, !- Handle
  1.1.2;                                  !- Version Identifier

OS:SimulationControl,
  {45a0873e-6d60-44aa-bd64-027c99d0f8a8}, !- Handle
  Yes,                                    !- Do Zone Sizing Calculation
  Yes,                                    !- Do System Sizing Calculation
  ,                                       !- Do Plant Sizing Calculation
  No,                                     !- Run Simulation for Sizing Periods
  Yes;                                    !- Run Simulation for Weather File Run Periods

OS:Timestep,
  {77612d2a-f5d6-4585-b06b-149dfc5305d9}, !- Handle
  6;                                      !- Number of Timesteps per Hour

OS:RunPeriod,
  {8adea47f-45a6-426d-9ab4-d7bdcb31f562}, !- Handle
  Run Period 1,                           !- Name
  1,                                      !- Begin Month
  1,                                      !- Begin Day of Month
  12,                                     !- End Month
  31,                                     !- End Day of Month
  No,                                     !- Use Weather File Holidays and Special Days
  No,                                     !- Use Weather File Daylight Saving Period
  No,                                     !- Apply Weekend Holiday Rule
  Yes,                                    !- Use Weather File Rain Indicators
  Yes,                                    !- Use Weather File Snow Indicators
  1;                                      !- Number of Times Runperiod to be Repeated

OS:SurfaceConvectionAlgorithm:Inside,
  {6ed7c2ae-d602-4eb0-ad48-2d8f4734c1b9}, !- Handle
  TARP;                                   !- Algorithm

OS:SurfaceConvectionAlgorithm:Outside,
  {73f9997c-2b5a-4e90-a25f-acc372da23ef}, !- Handle
  DOE-2;                                  !- Algorithm

OS:HeatBalanceAlgorithm,
  {1fca2cbd-6c94-46e0-8216-fd52ada19142}, !- Handle
  ConductionTransferFunction,             !- Algorithm
  200;                                    !- Surface Temperature Upper Limit {F}

OS:ZoneAirHeatBalanceAlgorithm,
  {fc59eebc-23e9-4d48-a4a0-c6ffd3ad1adf}, !- Handle
  AnalyticalSolution;                     !- Algorithm

OS:ConvergenceLimits,
  {a3e8601e-9410-4f5e-bca7-8a01400a3c43}; !- Handle

OS:ShadowCalculation,
  {b5842f3e-b3fe-4171-96c3-bb8c19894a22}, !- Handle
  7,                                      !- Calculation Frequency
  15000;                                  !- Maximum Figures in Shadow Overlap Calculations

OS:Site,
  {3a601661-db3e-42fc-88ba-6a9cbcf0fcad}, !- Handle
  Site 1,                                 !- Name
  41.77,                                  !- Latitude {deg}
  -87.75,                                 !- Longitude {deg}
  -6,                                     !- Time Zone {hr}
  190,                                    !- Elevation {m}
  ;                                       !- Terrain

OS:Site:GroundTemperature:BuildingSurface,
  {929bd0a6-ebed-49dd-9ff1-79f600217242}, !- Handle
  19.527,                                 !- January Ground Temperature {C}
  19.502,                                 !- February Ground Temperature {C}
  19.536,                                 !- March Ground Temperature {C}
  19.598,                                 !- April Ground Temperature {C}
  20.002,                                 !- May Ground Temperature {C}
  21.64,                                  !- June Ground Temperature {C}
  22.225,                                 !- July Ground Temperature {C}
  22.375,                                 !- August Ground Temperature {C}
  21.449,                                 !- September Ground Temperature {C}
  20.121,                                 !- October Ground Temperature {C}
  19.802,                                 !- November Ground Temperature {C}
  19.633;                                 !- December Ground Temperature {C}

OS:Site:WaterMainsTemperature,
  {e788f063-66ba-4132-bd3f-4e5152f038a9}, !- Handle
  Correlation,                            !- Calculation Method
  ,                                       !- Temperature Schedule Name
  9.69,                                   !- Annual Average Outdoor Air Temperature {C}
  28.1;                                   !- Maximum Difference In Monthly Average Outdoor Air Temperatures {deltaC}

OS:SizingPeriod:DesignDay,
  {f037aaa6-944f-4aa5-aa2d-892c0baa8701}, !- Handle
  Sizing Period Design Day 1,             !- Name
  -20.6,                                  !- Maximum Dry-Bulb Temperature {C}
  0,                                      !- Daily Dry-Bulb Temperature Range {deltaC}
  -20.6,                                  !- Humidity Indicating Conditions at Maximum Dry-Bulb {BasedOnField A3}
  99063,                                  !- Barometric Pressure {Pa}
  4.9,                                    !- Wind Speed {m/s}
  270,                                    !- Wind Direction {deg}
  0,                                      !- Sky Clearness
  0,                                      !- Rain Indicator
  0,                                      !- Snow Indicator
  21,                                     !- Day of Month
  1,                                      !- Month
  WinterDesignDay,                        !- Day Type
  0,                                      !- Daylight Saving Time Indicator
  WetBulb,                                !- Humidity Indicating Type
  ,                                       !- Humidity Indicating Day Schedule Name
  DefaultMultipliers,                     !- Dry-Bulb Temperature Range Modifier Type
  ,                                       !- Dry-Bulb Temperature Range Modifier Schedule Name
  AshraeClearSky;                         !- Solar Model Indicator

OS:SizingPeriod:DesignDay,
  {7b67fe1c-0d4e-4e22-beef-0a262c53b63b}, !- Handle
  Sizing Period Design Day 2,             !- Name
  33.2,                                   !- Maximum Dry-Bulb Temperature {C}
  10.7,                                   !- Daily Dry-Bulb Temperature Range {deltaC}
  23.8,                                   !- Humidity Indicating Conditions at Maximum Dry-Bulb {BasedOnField A3}
  99063,                                  !- Barometric Pressure {Pa}
  5.3,                                    !- Wind Speed {m/s}
  230,                                    !- Wind Direction {deg}
  1,                                      !- Sky Clearness
  0,                                      !- Rain Indicator
  0,                                      !- Snow Indicator
  21,                                     !- Day of Month
  7,                                      !- Month
  SummerDesignDay,                        !- Day Type
  0,                                      !- Daylight Saving Time Indicator
  WetBulb,                                !- Humidity Indicating Type
  ,                                       !- Humidity Indicating Day Schedule Name
  DefaultMultipliers,                     !- Dry-Bulb Temperature Range Modifier Type
  ,                                       !- Dry-Bulb Temperature Range Modifier Schedule Name
  AshraeClearSky;                         !- Solar Model Indicator

OS:ScheduleTypeLimits,
  {796c1b88-4489-4acf-a06f-70ae6e6601d1}, !- Handle
  Temperature,                            !- Name
  -60,                                    !- Lower Limit Value {BasedOnField A4}
  200,                                    !- Upper Limit Value {BasedOnField A4}
  CONTINUOUS,                             !- Numeric Type
  Temperature;                            !- Unit Type

OS:DefaultScheduleSet,
  {71f5daee-ead7-4dfa-974d-04e6c84bc6e1}, !- Handle
  Default Schedules,                      !- Name
  ,                                       !- Hours of Operation Schedule Name
  {a3b42fc4-b75e-4753-bee6-c329a3f74635}, !- Number of People Schedule Name
  {7d21dae0-7657-4b32-8b08-a9e0e88332d7}, !- People Activity Level Schedule Name
  {cbbd005b-34e7-4a4a-9667-cd81dd413310}, !- Lighting Schedule Name
  {4975acdb-68a5-414e-b62c-eac2d917a2ff}, !- Electric Equipment Schedule Name
  {ea6619f0-d4f6-4646-bccd-c2da28555d15}, !- Gas Equipment Schedule Name
  {ebd97e44-6ff6-4b1e-99ec-5aa481b0791c}, !- Hot Water Equipment Schedule Name
  {7ffaeb94-c0d0-4ace-bee0-f4a041cef7e7}, !- Infiltration Schedule Name
  ,                                       !- Steam Equipment Schedule Name
  ;                                       !- Other Equipment Schedule Name

OS:Schedule:Ruleset,
  {a3b42fc4-b75e-4753-bee6-c329a3f74635}, !- Handle
  Medium Office Number of People Schedule, !- Name
  {0c6ba065-1c13-4a24-a789-aff9f3288f50}, !- Schedule Type Limits Name
  {3e0fc57a-dfef-4ef0-ada5-2e3506bfb7d0}, !- Default Day Schedule Name
  {c3455922-d7cb-4221-843f-c48569ccfad8}; !- Summer Design Day Schedule Name

OS:Schedule:Day,
  {3e0fc57a-dfef-4ef0-ada5-2e3506bfb7d0}, !- Handle
  Medium Office Number of People All Other Days Schedule, !- Name
  {0c6ba065-1c13-4a24-a789-aff9f3288f50}, !- Schedule Type Limits Name
  ,                                       !- Interpolate to Timestep
  24,                                     !- Hour 1
  0,                                      !- Minute 1
  0;                                      !- Value Until Time 1

OS:Schedule:Day,
  {d0e19bf6-954d-40ce-8c43-939cd7ac4f53}, !- Handle
  Medium Office Number of People Summer Design Day Schedule, !- Name
  ,                                       !- Schedule Type Limits Name
  ,                                       !- Interpolate to Timestep
  6,                                      !- Hour 1
  0,                                      !- Minute 1
  0,                                      !- Value Until Time 1
  22,                                     !- Hour 2
  0,                                      !- Minute 2
  1,                                      !- Value Until Time 2
  24,                                     !- Hour 3
  0,                                      !- Minute 3
  0.05;                                   !- Value Until Time 3

OS:Schedule:Day,
  {c3455922-d7cb-4221-843f-c48569ccfad8}, !- Handle
  Medium Office Number of People Summer Design Day Schedule 1, !- Name
  {0c6ba065-1c13-4a24-a789-aff9f3288f50}, !- Schedule Type Limits Name
  ,                                       !- Interpolate to Timestep
  6,                                      !- Hour 1
  0,                                      !- Minute 1
  0,                                      !- Value Until Time 1
  22,                                     !- Hour 2
  0,                                      !- Minute 2
  1,                                      !- Value Until Time 2
  24,                                     !- Hour 3
  0,                                      !- Minute 3
  0.05;                                   !- Value Until Time 3

OS:Schedule:Rule,
  {22887dd5-712c-43df-988e-865d6d8cb526}, !- Handle
  Medium Office Number of People Schedule Weekdays Rule, !- Name
  {a3b42fc4-b75e-4753-bee6-c329a3f74635}, !- Schedule Ruleset Name
  1,                                      !- Rule Order
  {dbbcc8e6-3fd7-46ba-8750-a266ea72ab73}, !- Day Schedule Name
  ,                                       !- Apply Sunday
  Yes,                                    !- Apply Monday
  Yes,                                    !- Apply Tuesday
  Yes,                                    !- Apply Wednesday
  Yes,                                    !- Apply Thursday
  Yes;                                    !- Apply Friday

OS:Schedule:Day,
  {dbbcc8e6-3fd7-46ba-8750-a266ea72ab73}, !- Handle
  Medium Office Number of People Weekdays Schedule, !- Name
  {0c6ba065-1c13-4a24-a789-aff9f3288f50}, !- Schedule Type Limits Name
  ,                                       !- Interpolate to Timestep
  6,                                      !- Hour 1
  0,                                      !- Minute 1
  0,                                      !- Value Until Time 1
  7,                                      !- Hour 2
  0,                                      !- Minute 2
  0.1,                                    !- Value Until Time 2
  8,                                      !- Hour 3
  0,                                      !- Minute 3
  0.2,                                    !- Value Until Time 3
  12,                                     !- Hour 4
  0,                                      !- Minute 4
  0.95,                                   !- Value Until Time 4
  13,                                     !- Hour 5
  0,                                      !- Minute 5
  0.5,                                    !- Value Until Time 5
  17,                                     !- Hour 6
  0,                                      !- Minute 6
  0.95,                                   !- Value Until Time 6
  18,                                     !- Hour 7
  0,                                      !- Minute 7
  0.7,                                    !- Value Until Time 7
  20,                                     !- Hour 8
  0,                                      !- Minute 8
  0.4,                                    !- Value Until Time 8
  22,                                     !- Hour 9
  0,                                      !- Minute 9
  0.1,                                    !- Value Until Time 9
  24,                                     !- Hour 10
  0,                                      !- Minute 10
  0.05;                                   !- Value Until Time 10

OS:Schedule:Rule,
  {35a351b3-432f-4a7f-8ab7-e2a7afd93b18}, !- Handle
  Medium Office Number of People Schedule Saturday Rule, !- Name
  {a3b42fc4-b75e-4753-bee6-c329a3f74635}, !- Schedule Ruleset Name
  0,                                      !- Rule Order
  {9b30bc9e-5c26-473e-a909-ea41a8ba77f3}, !- Day Schedule Name
  ,                                       !- Apply Sunday
  ,                                       !- Apply Monday
  ,                                       !- Apply Tuesday
  ,                                       !- Apply Wednesday
  ,                                       !- Apply Thursday
  ,                                       !- Apply Friday
  Yes;                                    !- Apply Saturday

OS:Schedule:Day,
  {9b30bc9e-5c26-473e-a909-ea41a8ba77f3}, !- Handle
  Medium Office Number of People Saturday Schedule, !- Name
  {0c6ba065-1c13-4a24-a789-aff9f3288f50}, !- Schedule Type Limits Name
  ,                                       !- Interpolate to Timestep
  6,                                      !- Hour 1
  0,                                      !- Minute 1
  0,                                      !- Value Until Time 1
  8,                                      !- Hour 2
  0,                                      !- Minute 2
  0.1,                                    !- Value Until Time 2
  14,                                     !- Hour 3
  0,                                      !- Minute 3
  0.5,                                    !- Value Until Time 3
  17,                                     !- Hour 4
  0,                                      !- Minute 4
  0.1,                                    !- Value Until Time 4
  24,                                     !- Hour 5
  0,                                      !- Minute 5
  0;                                      !- Value Until Time 5

OS:ScheduleTypeLimits,
  {0c6ba065-1c13-4a24-a789-aff9f3288f50}, !- Handle
  Fractional,                             !- Name
  0,                                      !- Lower Limit Value {BasedOnField A4}
  1,                                      !- Upper Limit Value {BasedOnField A4}
  Continuous;                             !- Numeric Type

OS:Schedule:Ruleset,
  {7d21dae0-7657-4b32-8b08-a9e0e88332d7}, !- Handle
  Medium Office People Activity Level Schedule, !- Name
  {b76e4494-0b6e-4ebb-816a-34177d86b94d}, !- Schedule Type Limits Name
  {ec6f730e-076c-4e93-afa8-d1c40fea6222}; !- Default Day Schedule Name

OS:Schedule:Day,
  {ec6f730e-076c-4e93-afa8-d1c40fea6222}, !- Handle
  Medium Office People Activity Level All Days Schedule, !- Name
  {b76e4494-0b6e-4ebb-816a-34177d86b94d}, !- Schedule Type Limits Name
  ,                                       !- Interpolate to Timestep
  24,                                     !- Hour 1
  0,                                      !- Minute 1
  120;                                    !- Value Until Time 1

OS:ScheduleTypeLimits,
  {b76e4494-0b6e-4ebb-816a-34177d86b94d}, !- Handle
  ActivityLevel,                          !- Name
  0,                                      !- Lower Limit Value {BasedOnField A4}
  ,                                       !- Upper Limit Value {BasedOnField A4}
  Continuous,                             !- Numeric Type
  ActivityLevel;                          !- Unit Type

OS:Schedule:Ruleset,
  {cbbd005b-34e7-4a4a-9667-cd81dd413310}, !- Handle
  Medium Office Lighting Schedule,        !- Name
  {0c6ba065-1c13-4a24-a789-aff9f3288f50}, !- Schedule Type Limits Name
  {dbe0f44f-e073-4cae-b5a9-3c5a98a5611b}, !- Default Day Schedule Name
  {338982b3-f757-45fc-9c70-c280da797c65}, !- Summer Design Day Schedule Name
  {7be4624e-d315-464f-885d-5dad94e520bf}; !- Winter Design Day Schedule Name

OS:Schedule:Day,
  {dbe0f44f-e073-4cae-b5a9-3c5a98a5611b}, !- Handle
  Medium Office Lighting All Other Days Schedule, !- Name
  {0c6ba065-1c13-4a24-a789-aff9f3288f50}, !- Schedule Type Limits Name
  ,                                       !- Interpolate to Timestep
  24,                                     !- Hour 1
  0,                                      !- Minute 1
  0.05;                                   !- Value Until Time 1

OS:Schedule:Day,
  {d004ca4f-3bb1-4431-be63-3a429c77591d}, !- Handle
  Medium Office Lighting Summer Design Day Schedule, !- Name
  ,                                       !- Schedule Type Limits Name
  ,                                       !- Interpolate to Timestep
  6,                                      !- Hour 1
  0,                                      !- Minute 1
  1,                                      !- Value Until Time 1
  24,                                     !- Hour 2
  0,                                      !- Minute 2
  0;                                      !- Value Until Time 2

OS:Schedule:Day,
  {338982b3-f757-45fc-9c70-c280da797c65}, !- Handle
  Medium Office Lighting Summer Design Day Schedule 1, !- Name
  {0c6ba065-1c13-4a24-a789-aff9f3288f50}, !- Schedule Type Limits Name
  ,                                       !- Interpolate to Timestep
  6,                                      !- Hour 1
  0,                                      !- Minute 1
  1,                                      !- Value Until Time 1
  24,                                     !- Hour 2
  0,                                      !- Minute 2
  0;                                      !- Value Until Time 2

OS:Schedule:Day,
  {9326fdc3-9a52-41d2-a105-375c9b6b251b}, !- Handle
  Medium Office Lighting Winter Design Day Schedule, !- Name
  ,                                       !- Schedule Type Limits Name
  ,                                       !- Interpolate to Timestep
  24,                                     !- Hour 1
  0,                                      !- Minute 1
  0;                                      !- Value Until Time 1

OS:Schedule:Day,
  {7be4624e-d315-464f-885d-5dad94e520bf}, !- Handle
  Medium Office Lighting Winter Design Day Schedule 1, !- Name
  {0c6ba065-1c13-4a24-a789-aff9f3288f50}, !- Schedule Type Limits Name
  ,                                       !- Interpolate to Timestep
  24,                                     !- Hour 1
  0,                                      !- Minute 1
  0;                                      !- Value Until Time 1

OS:Schedule:Rule,
  {df357cb9-e04e-4000-ade5-bd12e1a77686}, !- Handle
  Medium Office Lighting Schedule Weekdays Rule, !- Name
  {cbbd005b-34e7-4a4a-9667-cd81dd413310}, !- Schedule Ruleset Name
  1,                                      !- Rule Order
  {26fbe0bb-cef0-4046-b6e4-ce5b6c42807e}, !- Day Schedule Name
  ,                                       !- Apply Sunday
  Yes,                                    !- Apply Monday
  Yes,                                    !- Apply Tuesday
  Yes,                                    !- Apply Wednesday
  Yes,                                    !- Apply Thursday
  Yes;                                    !- Apply Friday

OS:Schedule:Day,
  {26fbe0bb-cef0-4046-b6e4-ce5b6c42807e}, !- Handle
  Medium Office Lighting Weekdays Schedule, !- Name
  {0c6ba065-1c13-4a24-a789-aff9f3288f50}, !- Schedule Type Limits Name
  ,                                       !- Interpolate to Timestep
  5,                                      !- Hour 1
  0,                                      !- Minute 1
  0.05,                                   !- Value Until Time 1
  7,                                      !- Hour 2
  0,                                      !- Minute 2
  0.1,                                    !- Value Until Time 2
  8,                                      !- Hour 3
  0,                                      !- Minute 3
  0.3,                                    !- Value Until Time 3
  17,                                     !- Hour 4
  0,                                      !- Minute 4
  0.9,                                    !- Value Until Time 4
  18,                                     !- Hour 5
  0,                                      !- Minute 5
  0.7,                                    !- Value Until Time 5
  20,                                     !- Hour 6
  0,                                      !- Minute 6
  0.5,                                    !- Value Until Time 6
  22,                                     !- Hour 7
  0,                                      !- Minute 7
  0.3,                                    !- Value Until Time 7
  23,                                     !- Hour 8
  0,                                      !- Minute 8
  0.1,                                    !- Value Until Time 8
  24,                                     !- Hour 9
  0,                                      !- Minute 9
  0.05;                                   !- Value Until Time 9

OS:Schedule:Rule,
  {57936d6a-e33b-4dbf-8aaa-d45966a1a198}, !- Handle
  Medium Office Lighting Schedule Saturday Rule, !- Name
  {cbbd005b-34e7-4a4a-9667-cd81dd413310}, !- Schedule Ruleset Name
  0,                                      !- Rule Order
  {5343c3d7-2b97-4ebd-9a4a-9bcc90f24cf2}, !- Day Schedule Name
  ,                                       !- Apply Sunday
  ,                                       !- Apply Monday
  ,                                       !- Apply Tuesday
  ,                                       !- Apply Wednesday
  ,                                       !- Apply Thursday
  ,                                       !- Apply Friday
  Yes;                                    !- Apply Saturday

OS:Schedule:Day,
  {5343c3d7-2b97-4ebd-9a4a-9bcc90f24cf2}, !- Handle
  Medium Office Lighting Saturday Schedule, !- Name
  {0c6ba065-1c13-4a24-a789-aff9f3288f50}, !- Schedule Type Limits Name
  ,                                       !- Interpolate to Timestep
  6,                                      !- Hour 1
  0,                                      !- Minute 1
  0.05,                                   !- Value Until Time 1
  8,                                      !- Hour 2
  0,                                      !- Minute 2
  0.1,                                    !- Value Until Time 2
  14,                                     !- Hour 3
  0,                                      !- Minute 3
  0.5,                                    !- Value Until Time 3
  17,                                     !- Hour 4
  0,                                      !- Minute 4
  0.15,                                   !- Value Until Time 4
  24,                                     !- Hour 5
  0,                                      !- Minute 5
  0.05;                                   !- Value Until Time 5

OS:Schedule:Ruleset,
  {4975acdb-68a5-414e-b62c-eac2d917a2ff}, !- Handle
  Medium Office Electric Equipment Schedule, !- Name
  {0c6ba065-1c13-4a24-a789-aff9f3288f50}, !- Schedule Type Limits Name
  {885c6cdd-5948-455b-9bcf-513faf84b961}, !- Default Day Schedule Name
  {2444eaa1-8a54-4fc0-9408-20fe5d2f0ac8}, !- Summer Design Day Schedule Name
  {5f192f2e-6e35-4e73-8177-de1475fd1c65}; !- Winter Design Day Schedule Name

OS:Schedule:Day,
  {885c6cdd-5948-455b-9bcf-513faf84b961}, !- Handle
  Medium Office Electric Equipment All Other Days Schedule, !- Name
  {0c6ba065-1c13-4a24-a789-aff9f3288f50}, !- Schedule Type Limits Name
  ,                                       !- Interpolate to Timestep
  24,                                     !- Hour 1
  0,                                      !- Minute 1
  0.3;                                    !- Value Until Time 1

OS:Schedule:Day,
  {211b1291-bb34-4ed9-bc98-5a7d653580f8}, !- Handle
  Medium Office Electric Equipment Summer Design Day Schedule, !- Name
  ,                                       !- Schedule Type Limits Name
  ,                                       !- Interpolate to Timestep
  6,                                      !- Hour 1
  0,                                      !- Minute 1
  1,                                      !- Value Until Time 1
  24,                                     !- Hour 2
  0,                                      !- Minute 2
  0;                                      !- Value Until Time 2

OS:Schedule:Day,
  {2444eaa1-8a54-4fc0-9408-20fe5d2f0ac8}, !- Handle
  Medium Office Electric Equipment Summer Design Day Schedule 1, !- Name
  {0c6ba065-1c13-4a24-a789-aff9f3288f50}, !- Schedule Type Limits Name
  ,                                       !- Interpolate to Timestep
  6,                                      !- Hour 1
  0,                                      !- Minute 1
  1,                                      !- Value Until Time 1
  24,                                     !- Hour 2
  0,                                      !- Minute 2
  0;                                      !- Value Until Time 2

OS:Schedule:Day,
  {1548f67d-51c8-47d2-8736-fc342011a8b9}, !- Handle
  Medium Office Electric Equipment Winter Design Day Schedule, !- Name
  ,                                       !- Schedule Type Limits Name
  ,                                       !- Interpolate to Timestep
  24,                                     !- Hour 1
  0,                                      !- Minute 1
  0;                                      !- Value Until Time 1

OS:Schedule:Day,
  {5f192f2e-6e35-4e73-8177-de1475fd1c65}, !- Handle
  Medium Office Electric Equipment Winter Design Day Schedule 1, !- Name
  {0c6ba065-1c13-4a24-a789-aff9f3288f50}, !- Schedule Type Limits Name
  ,                                       !- Interpolate to Timestep
  24,                                     !- Hour 1
  0,                                      !- Minute 1
  0;                                      !- Value Until Time 1

OS:Schedule:Rule,
  {fdb0d2d6-8f8d-4faf-84ea-45645b9896ba}, !- Handle
  Medium Office Electric Equipment Schedule Weekdays Rule, !- Name
  {4975acdb-68a5-414e-b62c-eac2d917a2ff}, !- Schedule Ruleset Name
  1,                                      !- Rule Order
  {ef6ec45e-3110-4551-96e5-d2c5c386d070}, !- Day Schedule Name
  ,                                       !- Apply Sunday
  Yes,                                    !- Apply Monday
  Yes,                                    !- Apply Tuesday
  Yes,                                    !- Apply Wednesday
  Yes,                                    !- Apply Thursday
  Yes;                                    !- Apply Friday

OS:Schedule:Day,
  {ef6ec45e-3110-4551-96e5-d2c5c386d070}, !- Handle
  Medium Office Electric Equipment Weekdays Schedule, !- Name
  {0c6ba065-1c13-4a24-a789-aff9f3288f50}, !- Schedule Type Limits Name
  ,                                       !- Interpolate to Timestep
  8,                                      !- Hour 1
  0,                                      !- Minute 1
  0.4,                                    !- Value Until Time 1
  12,                                     !- Hour 2
  0,                                      !- Minute 2
  0.9,                                    !- Value Until Time 2
  13,                                     !- Hour 3
  0,                                      !- Minute 3
  0.8,                                    !- Value Until Time 3
  17,                                     !- Hour 4
  0,                                      !- Minute 4
  0.9,                                    !- Value Until Time 4
  18,                                     !- Hour 5
  0,                                      !- Minute 5
  0.8,                                    !- Value Until Time 5
  20,                                     !- Hour 6
  0,                                      !- Minute 6
  0.6,                                    !- Value Until Time 6
  22,                                     !- Hour 7
  0,                                      !- Minute 7
  0.5,                                    !- Value Until Time 7
  24,                                     !- Hour 8
  0,                                      !- Minute 8
  0.4;                                    !- Value Until Time 8

OS:Schedule:Rule,
  {4e7af48d-76b4-4fe6-bd58-5fbd76f638d8}, !- Handle
  Medium Office Electric Equipment Schedule Saturday Rule, !- Name
  {4975acdb-68a5-414e-b62c-eac2d917a2ff}, !- Schedule Ruleset Name
  0,                                      !- Rule Order
  {6b472f4c-1420-4e97-b6df-8d1816842339}, !- Day Schedule Name
  ,                                       !- Apply Sunday
  ,                                       !- Apply Monday
  ,                                       !- Apply Tuesday
  ,                                       !- Apply Wednesday