
OS:Version,
  {c010b7ec-afab-4a0e-b577-82b546323c71}, !- Handle
  1.8.3;                                  !- Version Identifier

OS:SimulationControl,
  {e8e6a735-f111-4e7a-bc23-0874d03f99e9}, !- Handle
  Yes,                                    !- Do Zone Sizing Calculation
  Yes,                                    !- Do System Sizing Calculation
  ,                                       !- Do Plant Sizing Calculation
  No,                                     !- Run Simulation for Sizing Periods
  Yes;                                    !- Run Simulation for Weather File Run Periods

OS:Timestep,
  {13f0dfe3-25a1-40a1-9237-c043b9737a0e}, !- Handle
  6;                                      !- Number of Timesteps per Hour

OS:RunPeriod,
  {f7459eec-ddab-41c2-be2b-e42f6f7e4108}, !- Handle
  Run Period 1,                           !- Name
  1,                                      !- Begin Month
  1,                                      !- Begin Day of Month
  12,                                     !- End Month
  31,                                     !- End Day of Month
  No,                                     !- Use Weather File Holidays and Special Days
  No,                                     !- Use Weather File Daylight Saving Period
  No,                                     !- Apply Weekend Holiday Rule
  Yes,                                    !- Use Weather File Rain Indicators
  Yes,                                    !- Use Weather File Snow Indicators
  1;                                      !- Number of Times Runperiod to be Repeated

OS:SurfaceConvectionAlgorithm:Inside,
  {286ca577-8605-4ed8-b144-9ded49d4f4bf}, !- Handle
  TARP;                                   !- Algorithm

OS:SurfaceConvectionAlgorithm:Outside,
  {9b560096-2486-4d5a-8675-c33a89cad593}, !- Handle
  DOE-2;                                  !- Algorithm

OS:HeatBalanceAlgorithm,
  {2d4ab31f-0685-45c4-8a7b-4f8f5211e7ae}, !- Handle
  ConductionTransferFunction,             !- Algorithm
  200;                                    !- Surface Temperature Upper Limit {F}

OS:ZoneAirHeatBalanceAlgorithm,
  {58150799-bce9-47b1-818e-cc106ae78474}, !- Handle
  AnalyticalSolution;                     !- Algorithm

OS:ConvergenceLimits,
  {3109bf9d-b486-41b9-be2e-f6132dbfc3da}; !- Handle

OS:ShadowCalculation,
  {49f4aa39-7cb8-4c62-a629-560ea9ebb663}, !- Handle
  7,                                      !- Calculation Frequency
  15000;                                  !- Maximum Figures in Shadow Overlap Calculations

OS:Site,
  {161be5e9-ee17-4460-87aa-ccf41f2079d4}, !- Handle
  Site 1,                                 !- Name
  41.77,                                  !- Latitude {deg}
  -87.75,                                 !- Longitude {deg}
  -6,                                     !- Time Zone {hr}
  190,                                    !- Elevation {m}
  ;                                       !- Terrain

OS:Site:GroundTemperature:BuildingSurface,
  {6b36fb44-18f7-4b82-abff-335c8f5a2f1a}, !- Handle
  19.527,                                 !- January Ground Temperature {C}
  19.502,                                 !- February Ground Temperature {C}
  19.536,                                 !- March Ground Temperature {C}
  19.598,                                 !- April Ground Temperature {C}
  20.002,                                 !- May Ground Temperature {C}
  21.64,                                  !- June Ground Temperature {C}
  22.225,                                 !- July Ground Temperature {C}
  22.375,                                 !- August Ground Temperature {C}
  21.449,                                 !- September Ground Temperature {C}
  20.121,                                 !- October Ground Temperature {C}
  19.802,                                 !- November Ground Temperature {C}
  19.633;                                 !- December Ground Temperature {C}

OS:Site:WaterMainsTemperature,
  {458c0761-7277-46fa-98e4-6336ad342661}, !- Handle
  Correlation,                            !- Calculation Method
  ,                                       !- Temperature Schedule Name
  9.69,                                   !- Annual Average Outdoor Air Temperature {C}
  28.1;                                   !- Maximum Difference In Monthly Average Outdoor Air Temperatures {deltaC}

OS:SizingPeriod:DesignDay,
  {f04f447b-3520-423b-9cc5-a8ce179d8f57}, !- Handle
  Sizing Period Design Day 1,             !- Name
  -20.6,                                  !- Maximum Dry-Bulb Temperature {C}
  0,                                      !- Daily Dry-Bulb Temperature Range {deltaC}
  -20.6,                                  !- Humidity Indicating Conditions at Maximum Dry-Bulb {BasedOnField A3}
  99063,                                  !- Barometric Pressure {Pa}
  4.9,                                    !- Wind Speed {m/s}
  270,                                    !- Wind Direction {deg}
  0,                                      !- Sky Clearness
  0,                                      !- Rain Indicator
  0,                                      !- Snow Indicator
  21,                                     !- Day of Month
  1,                                      !- Month
  WinterDesignDay,                        !- Day Type
  0,                                      !- Daylight Saving Time Indicator
  WetBulb,                                !- Humidity Indicating Type
  ,                                       !- Humidity Indicating Day Schedule Name
  DefaultMultipliers,                     !- Dry-Bulb Temperature Range Modifier Type
  ,                                       !- Dry-Bulb Temperature Range Modifier Schedule Name
  AshraeClearSky;                         !- Solar Model Indicator

OS:SizingPeriod:DesignDay,
  {c9695602-08e1-48a6-b399-8c7ae7ce3b60}, !- Handle
  Sizing Period Design Day 2,             !- Name
  33.2,                                   !- Maximum Dry-Bulb Temperature {C}
  10.7,                                   !- Daily Dry-Bulb Temperature Range {deltaC}
  23.8,                                   !- Humidity Indicating Conditions at Maximum Dry-Bulb {BasedOnField A3}
  99063,                                  !- Barometric Pressure {Pa}
  5.3,                                    !- Wind Speed {m/s}
  230,                                    !- Wind Direction {deg}
  1,                                      !- Sky Clearness
  0,                                      !- Rain Indicator
  0,                                      !- Snow Indicator
  21,                                     !- Day of Month
  7,                                      !- Month
  SummerDesignDay,                        !- Day Type
  0,                                      !- Daylight Saving Time Indicator
  WetBulb,                                !- Humidity Indicating Type
  ,                                       !- Humidity Indicating Day Schedule Name
  DefaultMultipliers,                     !- Dry-Bulb Temperature Range Modifier Type
  ,                                       !- Dry-Bulb Temperature Range Modifier Schedule Name
  AshraeClearSky;                         !- Solar Model Indicator

OS:ScheduleTypeLimits,
  {fc8fa7be-3a36-4cb7-a396-a8f4bd7b13a1}, !- Handle
  Temperature,                            !- Name
  -60,                                    !- Lower Limit Value {BasedOnField A4}
  200,                                    !- Upper Limit Value {BasedOnField A4}
  CONTINUOUS,                             !- Numeric Type
  Temperature;                            !- Unit Type

OS:DefaultScheduleSet,
  {37ea8f72-29db-419f-aa32-ccd64cfbb174}, !- Handle
  Default Schedules,                      !- Name
  ,                                       !- Hours of Operation Schedule Name
  {e3a16ba4-078e-44e2-a336-b3468bbe8f04}, !- Number of People Schedule Name
  {5a4f544d-d24f-4cb1-855b-3fbc8ccd6ab4}, !- People Activity Level Schedule Name
  {a4c99d8f-0b5e-49c7-9bc1-c0637e07d940}, !- Lighting Schedule Name
  {03b160c0-398c-4fe6-8801-4b81a0e42df3}, !- Electric Equipment Schedule Name
  {630dbe20-3aa7-4bd4-a06b-24c01b072465}, !- Gas Equipment Schedule Name
  {9ce8c92a-bc1a-406a-9021-0e3d5642d3bb}, !- Hot Water Equipment Schedule Name
  {fa26e52d-7f47-4b11-b796-fa399bd9ad6b}, !- Infiltration Schedule Name
  ,                                       !- Steam Equipment Schedule Name
  ;                                       !- Other Equipment Schedule Name

OS:Schedule:Ruleset,
  {e3a16ba4-078e-44e2-a336-b3468bbe8f04}, !- Handle
  Medium Office Number of People Schedule, !- Name
  {f9807a82-95a4-4d5b-ad01-bc6cd72b6ffb}, !- Schedule Type Limits Name
  {99d75c27-4b28-403c-832d-7c11a8ecdd97}, !- Default Day Schedule Name
  {9ab8d897-2ae3-41ca-9d6f-c58a385e2f9f}; !- Summer Design Day Schedule Name

OS:Schedule:Day,
  {99d75c27-4b28-403c-832d-7c11a8ecdd97}, !- Handle
  Medium Office Number of People All Other Days Schedule, !- Name
  {f9807a82-95a4-4d5b-ad01-bc6cd72b6ffb}, !- Schedule Type Limits Name
  ,                                       !- Interpolate to Timestep
  24,                                     !- Hour 1
  0,                                      !- Minute 1
  0;                                      !- Value Until Time 1

OS:Schedule:Day,
  {14ccc05c-8404-495d-8b69-e50590992970}, !- Handle
  Medium Office Number of People Summer Design Day Schedule, !- Name
  ,                                       !- Schedule Type Limits Name
  ,                                       !- Interpolate to Timestep
  6,                                      !- Hour 1
  0,                                      !- Minute 1
  0,                                      !- Value Until Time 1
  22,                                     !- Hour 2
  0,                                      !- Minute 2
  1,                                      !- Value Until Time 2
  24,                                     !- Hour 3
  0,                                      !- Minute 3
  0.05;                                   !- Value Until Time 3

OS:Schedule:Day,
  {9ab8d897-2ae3-41ca-9d6f-c58a385e2f9f}, !- Handle
  Medium Office Number of People Summer Design Day Schedule 1, !- Name
  {f9807a82-95a4-4d5b-ad01-bc6cd72b6ffb}, !- Schedule Type Limits Name
  ,                                       !- Interpolate to Timestep
  6,                                      !- Hour 1
  0,                                      !- Minute 1
  0,                                      !- Value Until Time 1
  22,                                     !- Hour 2
  0,                                      !- Minute 2
  1,                                      !- Value Until Time 2
  24,                                     !- Hour 3
  0,                                      !- Minute 3
  0.05;                                   !- Value Until Time 3

OS:Schedule:Rule,
  {6fd68f30-fc4c-4ba1-b850-03b887a54201}, !- Handle
  Medium Office Number of People Schedule Weekdays Rule, !- Name
  {e3a16ba4-078e-44e2-a336-b3468bbe8f04}, !- Schedule Ruleset Name
  1,                                      !- Rule Order
  {c409a15b-0b13-40df-a76c-c477c0bfc498}, !- Day Schedule Name
  ,                                       !- Apply Sunday
  Yes,                                    !- Apply Monday
  Yes,                                    !- Apply Tuesday
  Yes,                                    !- Apply Wednesday
  Yes,                                    !- Apply Thursday
  Yes;                                    !- Apply Friday

OS:Schedule:Day,
  {c409a15b-0b13-40df-a76c-c477c0bfc498}, !- Handle
  Medium Office Number of People Weekdays Schedule, !- Name
  {f9807a82-95a4-4d5b-ad01-bc6cd72b6ffb}, !- Schedule Type Limits Name
  ,                                       !- Interpolate to Timestep
  6,                                      !- Hour 1
  0,                                      !- Minute 1
  0,                                      !- Value Until Time 1
  7,                                      !- Hour 2
  0,                                      !- Minute 2
  0.1,                                    !- Value Until Time 2
  8,                                      !- Hour 3
  0,                                      !- Minute 3
  0.2,                                    !- Value Until Time 3
  12,                                     !- Hour 4
  0,                                      !- Minute 4
  0.95,                                   !- Value Until Time 4
  13,                                     !- Hour 5
  0,                                      !- Minute 5
  0.5,                                    !- Value Until Time 5
  17,                                     !- Hour 6
  0,                                      !- Minute 6
  0.95,                                   !- Value Until Time 6
  18,                                     !- Hour 7
  0,                                      !- Minute 7
  0.7,                                    !- Value Until Time 7
  20,                                     !- Hour 8
  0,                                      !- Minute 8
  0.4,                                    !- Value Until Time 8
  22,                                     !- Hour 9
  0,                                      !- Minute 9
  0.1,                                    !- Value Until Time 9
  24,                                     !- Hour 10
  0,                                      !- Minute 10
  0.05;                                   !- Value Until Time 10

OS:Schedule:Rule,
  {a9d71879-da47-4af5-acf1-32af8e5b65b4}, !- Handle
  Medium Office Number of People Schedule Saturday Rule, !- Name
  {e3a16ba4-078e-44e2-a336-b3468bbe8f04}, !- Schedule Ruleset Name
  0,                                      !- Rule Order
  {bfbe2bae-7051-4291-bf50-3fa43388462c}, !- Day Schedule Name
  ,                                       !- Apply Sunday
  ,                                       !- Apply Monday
  ,                                       !- Apply Tuesday
  ,                                       !- Apply Wednesday
  ,                                       !- Apply Thursday
  ,                                       !- Apply Friday
  Yes;                                    !- Apply Saturday

OS:Schedule:Day,
  {bfbe2bae-7051-4291-bf50-3fa43388462c}, !- Handle
  Medium Office Number of People Saturday Schedule, !- Name
  {f9807a82-95a4-4d5b-ad01-bc6cd72b6ffb}, !- Schedule Type Limits Name
  ,                                       !- Interpolate to Timestep
  6,                                      !- Hour 1
  0,                                      !- Minute 1
  0,                                      !- Value Until Time 1
  8,                                      !- Hour 2
  0,                                      !- Minute 2
  0.1,                                    !- Value Until Time 2
  14,                                     !- Hour 3
  0,                                      !- Minute 3
  0.5,                                    !- Value Until Time 3
  17,                                     !- Hour 4
  0,                                      !- Minute 4
  0.1,                                    !- Value Until Time 4
  24,                                     !- Hour 5
  0,                                      !- Minute 5
  0;                                      !- Value Until Time 5

OS:ScheduleTypeLimits,
  {f9807a82-95a4-4d5b-ad01-bc6cd72b6ffb}, !- Handle
  Fractional,                             !- Name
  0,                                      !- Lower Limit Value {BasedOnField A4}
  1,                                      !- Upper Limit Value {BasedOnField A4}
  Continuous;                             !- Numeric Type

OS:Schedule:Ruleset,
  {5a4f544d-d24f-4cb1-855b-3fbc8ccd6ab4}, !- Handle
  Medium Office People Activity Level Schedule, !- Name
  {31578a9f-cf5e-41aa-a5ec-637ef8abf4ae}, !- Schedule Type Limits Name
  {39a99430-0bc9-495a-b320-0461fa7d145c}; !- Default Day Schedule Name

OS:Schedule:Day,
  {39a99430-0bc9-495a-b320-0461fa7d145c}, !- Handle
  Medium Office People Activity Level All Days Schedule, !- Name
  {31578a9f-cf5e-41aa-a5ec-637ef8abf4ae}, !- Schedule Type Limits Name
  ,                                       !- Interpolate to Timestep
  24,                                     !- Hour 1
  0,                                      !- Minute 1
  120;                                    !- Value Until Time 1

OS:ScheduleTypeLimits,
  {31578a9f-cf5e-41aa-a5ec-637ef8abf4ae}, !- Handle
  ActivityLevel,                          !- Name
  0,                                      !- Lower Limit Value {BasedOnField A4}
  ,                                       !- Upper Limit Value {BasedOnField A4}
  Continuous,                             !- Numeric Type
  ActivityLevel;                          !- Unit Type

OS:Schedule:Ruleset,
  {a4c99d8f-0b5e-49c7-9bc1-c0637e07d940}, !- Handle
  Medium Office Lighting Schedule,        !- Name
  {f9807a82-95a4-4d5b-ad01-bc6cd72b6ffb}, !- Schedule Type Limits Name
  {b0d7dd61-9774-4113-a1f2-6142ad08e151}, !- Default Day Schedule Name
  {4f196403-013b-4d35-bf3f-aec4a761e40b}, !- Summer Design Day Schedule Name
  {c5bdc1de-467c-411e-864d-48ef8dffaa3e}; !- Winter Design Day Schedule Name

OS:Schedule:Day,
  {b0d7dd61-9774-4113-a1f2-6142ad08e151}, !- Handle
  Medium Office Lighting All Other Days Schedule, !- Name
  {f9807a82-95a4-4d5b-ad01-bc6cd72b6ffb}, !- Schedule Type Limits Name
  ,                                       !- Interpolate to Timestep
  24,                                     !- Hour 1
  0,                                      !- Minute 1
  0.05;                                   !- Value Until Time 1

OS:Schedule:Day,
  {daa20700-0df1-434e-a078-ec253d909e51}, !- Handle
  Medium Office Lighting Summer Design Day Schedule, !- Name
  ,                                       !- Schedule Type Limits Name
  ,                                       !- Interpolate to Timestep
  6,                                      !- Hour 1
  0,                                      !- Minute 1
  1,                                      !- Value Until Time 1
  24,                                     !- Hour 2
  0,                                      !- Minute 2
  0;                                      !- Value Until Time 2

OS:Schedule:Day,
  {4f196403-013b-4d35-bf3f-aec4a761e40b}, !- Handle
  Medium Office Lighting Summer Design Day Schedule 1, !- Name
  {f9807a82-95a4-4d5b-ad01-bc6cd72b6ffb}, !- Schedule Type Limits Name
  ,                                       !- Interpolate to Timestep
  6,                                      !- Hour 1
  0,                                      !- Minute 1
  1,                                      !- Value Until Time 1
  24,                                     !- Hour 2
  0,                                      !- Minute 2
  0;                                      !- Value Until Time 2

OS:Schedule:Day,
  {4afb5a53-8999-4a88-aa61-cb7f6d3aebfe}, !- Handle
  Medium Office Lighting Winter Design Day Schedule, !- Name
  ,                                       !- Schedule Type Limits Name
  ,                                       !- Interpolate to Timestep
  24,                                     !- Hour 1
  0,                                      !- Minute 1
  0;                                      !- Value Until Time 1

OS:Schedule:Day,
  {c5bdc1de-467c-411e-864d-48ef8dffaa3e}, !- Handle
  Medium Office Lighting Winter Design Day Schedule 1, !- Name
  {f9807a82-95a4-4d5b-ad01-bc6cd72b6ffb}, !- Schedule Type Limits Name
  ,                                       !- Interpolate to Timestep
  24,                                     !- Hour 1
  0,                                      !- Minute 1
  0;                                      !- Value Until Time 1

OS:Schedule:Rule,
  {73b51c01-ffe6-479a-a4bc-04ade47b94b9}, !- Handle
  Medium Office Lighting Schedule Weekdays Rule, !- Name
  {a4c99d8f-0b5e-49c7-9bc1-c0637e07d940}, !- Schedule Ruleset Name
  1,                                      !- Rule Order
  {d66dc4d3-558c-4786-9b86-a93afb42b1b1}, !- Day Schedule Name
  ,                                       !- Apply Sunday
  Yes,                                    !- Apply Monday
  Yes,                                    !- Apply Tuesday
  Yes,                                    !- Apply Wednesday
  Yes,                                    !- Apply Thursday
  Yes;                                    !- Apply Friday

OS:Schedule:Day,
  {d66dc4d3-558c-4786-9b86-a93afb42b1b1}, !- Handle
  Medium Office Lighting Weekdays Schedule, !- Name
  {f9807a82-95a4-4d5b-ad01-bc6cd72b6ffb}, !- Schedule Type Limits Name
  ,                                       !- Interpolate to Timestep
  5,                                      !- Hour 1
  0,                                      !- Minute 1
  0.05,                                   !- Value Until Time 1
  7,                                      !- Hour 2
  0,                                      !- Minute 2
  0.1,                                    !- Value Until Time 2
  8,                                      !- Hour 3
  0,                                      !- Minute 3
  0.3,                                    !- Value Until Time 3
  17,                                     !- Hour 4
  0,                                      !- Minute 4
  0.9,                                    !- Value Until Time 4
  18,                                     !- Hour 5
  0,                                      !- Minute 5
  0.7,                                    !- Value Until Time 5
  20,                                     !- Hour 6
  0,                                      !- Minute 6
  0.5,                                    !- Value Until Time 6
  22,                                     !- Hour 7
  0,                                      !- Minute 7
  0.3,                                    !- Value Until Time 7
  23,                                     !- Hour 8
  0,                                      !- Minute 8
  0.1,                                    !- Value Until Time 8
  24,                                     !- Hour 9
  0,                                      !- Minute 9
  0.05;                                   !- Value Until Time 9

OS:Schedule:Rule,
  {2db6c404-6362-464e-add7-a3db3bf18222}, !- Handle
  Medium Office Lighting Schedule Saturday Rule, !- Name
  {a4c99d8f-0b5e-49c7-9bc1-c0637e07d940}, !- Schedule Ruleset Name
  0,                                      !- Rule Order
  {1342ab87-80d6-493e-9e6d-245dca2a5823}, !- Day Schedule Name
  ,                                       !- Apply Sunday
  ,                                       !- Apply Monday
  ,                                       !- Apply Tuesday
  ,                                       !- Apply Wednesday
  ,                                       !- Apply Thursday
  ,                                       !- Apply Friday
  Yes;                                    !- Apply Saturday

OS:Schedule:Day,
  {1342ab87-80d6-493e-9e6d-245dca2a5823}, !- Handle
  Medium Office Lighting Saturday Schedule, !- Name
  {f9807a82-95a4-4d5b-ad01-bc6cd72b6ffb}, !- Schedule Type Limits Name
  ,                                       !- Interpolate to Timestep
  6,                                      !- Hour 1
  0,                                      !- Minute 1
  0.05,                                   !- Value Until Time 1
  8,                                      !- Hour 2
  0,                                      !- Minute 2
  0.1,                                    !- Value Until Time 2
  14,                                     !- Hour 3
  0,                                      !- Minute 3
  0.5,                                    !- Value Until Time 3
  17,                                     !- Hour 4
  0,                                      !- Minute 4
  0.15,                                   !- Value Until Time 4
  24,                                     !- Hour 5
  0,                                      !- Minute 5
  0.05;                                   !- Value Until Time 5

OS:Schedule:Ruleset,
  {03b160c0-398c-4fe6-8801-4b81a0e42df3}, !- Handle
  Medium Office Electric Equipment Schedule, !- Name
  {f9807a82-95a4-4d5b-ad01-bc6cd72b6ffb}, !- Schedule Type Limits Name
  {8eae38f6-468f-46b7-806b-629b70a9daff}, !- Default Day Schedule Name
  {f2a24d89-b256-4ffa-ad0f-43d92c1d28e4}, !- Summer Design Day Schedule Name
  {e92aec23-9da4-4399-b7c6-781d871c9ba2}; !- Winter Design Day Schedule Name

OS:Schedule:Day,
  {8eae38f6-468f-46b7-806b-629b70a9daff}, !- Handle
  Medium Office Electric Equipment All Other Days Schedule, !- Name
  {f9807a82-95a4-4d5b-ad01-bc6cd72b6ffb}, !- Schedule Type Limits Name
  ,                                       !- Interpolate to Timestep
  24,                                     !- Hour 1
  0,                                      !- Minute 1
  0.3;                                    !- Value Until Time 1

OS:Schedule:Day,
  {edd53002-bc66-4bf8-a5dd-12efc35f8130}, !- Handle
  Medium Office Electric Equipment Summer Design Day Schedule, !- Name
  ,                                       !- Schedule Type Limits Name
  ,                                       !- Interpolate to Timestep
  6,                                      !- Hour 1
  0,                                      !- Minute 1
  1,                                      !- Value Until Time 1
  24,                                     !- Hour 2
  0,                                      !- Minute 2
  0;                                      !- Value Until Time 2

OS:Schedule:Day,
  {f2a24d89-b256-4ffa-ad0f-43d92c1d28e4}, !- Handle
  Medium Office Electric Equipment Summer Design Day Schedule 1, !- Name
  {f9807a82-95a4-4d5b-ad01-bc6cd72b6ffb}, !- Schedule Type Limits Name
  ,                                       !- Interpolate to Timestep
  6,                                      !- Hour 1
  0,                                      !- Minute 1
  1,                                      !- Value Until Time 1
  24,                                     !- Hour 2
  0,                                      !- Minute 2
  0;                                      !- Value Until Time 2

OS:Schedule:Day,
  {2b26da41-5ef7-481f-8df6-6afc1800ff94}, !- Handle
  Medium Office Electric Equipment Winter Design Day Schedule, !- Name
  ,                                       !- Schedule Type Limits Name
  ,                                       !- Interpolate to Timestep
  24,                                     !- Hour 1
  0,                                      !- Minute 1
  0;                                      !- Value Until Time 1

OS:Schedule:Day,
  {e92aec23-9da4-4399-b7c6-781d871c9ba2}, !- Handle
  Medium Office Electric Equipment Winter Design Day Schedule 1, !- Name
  {f9807a82-95a4-4d5b-ad01-bc6cd72b6ffb}, !- Schedule Type Limits Name
  ,                                       !- Interpolate to Timestep
  24,                                     !- Hour 1
  0,                                      !- Minute 1
  0;                                      !- Value Until Time 1

OS:Schedule:Rule,
  {59f462fa-801c-469b-929c-43415d638f2e}, !- Handle
  Medium Office Electric Equipment Schedule Weekdays Rule, !- Name
  {03b160c0-398c-4fe6-8801-4b81a0e42df3}, !- Schedule Ruleset Name
  1,                                      !- Rule Order
  {e14d363a-6ac6-4013-b036-2c98cbedac5c}, !- Day Schedule Name
  ,                                       !- Apply Sunday
  Yes,                                    !- Apply Monday
  Yes,                                    !- Apply Tuesday
  Yes,                                    !- Apply Wednesday
  Yes,                                    !- Apply Thursday
  Yes;                                    !- Apply Friday

OS:Schedule:Day,
  {e14d363a-6ac6-4013-b036-2c98cbedac5c}, !- Handle
  Medium Office Electric Equipment Weekdays Schedule, !- Name
  {f9807a82-95a4-4d5b-ad01-bc6cd72b6ffb}, !- Schedule Type Limits Name
  ,                                       !- Interpolate to Timestep
  8,                                      !- Hour 1
  0,                                      !- Minute 1
  0.4,                                    !- Value Until Time 1
  12,                                     !- Hour 2
  0,                                      !- Minute 2
  0.9,                                    !- Value Until Time 2
  13,                                     !- Hour 3
  0,                                      !- Minute 3
  0.8,                                    !- Value Until Time 3
  17,                                     !- Hour 4
  0,                                      !- Minute 4
  0.9,                                    !- Value Until Time 4
  18,                                     !- Hour 5
  0,                                      !- Minute 5
  0.8,                                    !- Value Until Time 5
  20,                                     !- Hour 6
  0,                                      !- Minute 6
  0.6,                                    !- Value Until Time 6
  22,                                     !- Hour 7
  0,                                      !- Minute 7
  0.5,                                    !- Value Until Time 7
  24,                                     !- Hour 8
  0,                                      !- Minute 8
  0.4;                                    !- Value Until Time 8

OS:Schedule:Rule,
  {9240934d-3be5-46e7-8417-8cb13d7fdef8}, !- Handle
  Medium Office Electric Equipment Schedule Saturday Rule, !- Name
  {03b160c0-398c-4fe6-8801-4b81a0e42df3}, !- Schedule Ruleset Name
  0,                                      !- Rule Order
  {271e0c25-369d-40da-80a2-70efc3b20f6e}, !- Day Schedule Name
  ,                                       !- Apply Sunday
  ,                                       !- Apply Monday
  ,                                       !- Apply Tuesday
  ,                                       !- Apply Wednesday