
OS:Version,
  {81dd2ca8-eee9-4f5e-b544-74e16193c596}, !- Handle
  1.2.4;                                  !- Version Identifier

OS:SimulationControl,
  {666bd70b-dd4b-4997-af22-8695eb517406}, !- Handle
  Yes,                                    !- Do Zone Sizing Calculation
  Yes,                                    !- Do System Sizing Calculation
  ,                                       !- Do Plant Sizing Calculation
  No,                                     !- Run Simulation for Sizing Periods
  Yes;                                    !- Run Simulation for Weather File Run Periods

OS:Timestep,
  {45d2db60-ece6-441a-821a-804ca4bbbd3d}, !- Handle
  6;                                      !- Number of Timesteps per Hour

OS:RunPeriod,
  {14adf44f-bf6a-4a7d-a115-5ee692fc18e2}, !- Handle
  Run Period 1,                           !- Name
  1,                                      !- Begin Month
  1,                                      !- Begin Day of Month
  12,                                     !- End Month
  31,                                     !- End Day of Month
  No,                                     !- Use Weather File Holidays and Special Days
  No,                                     !- Use Weather File Daylight Saving Period
  No,                                     !- Apply Weekend Holiday Rule
  Yes,                                    !- Use Weather File Rain Indicators
  Yes,                                    !- Use Weather File Snow Indicators
  1;                                      !- Number of Times Runperiod to be Repeated

OS:SurfaceConvectionAlgorithm:Inside,
  {5614c019-4550-4bce-a067-7145d87478b8}, !- Handle
  TARP;                                   !- Algorithm

OS:SurfaceConvectionAlgorithm:Outside,
  {6e01eb26-c85e-4443-8945-e8efb263ce04}, !- Handle
  DOE-2;                                  !- Algorithm

OS:HeatBalanceAlgorithm,
  {bd49cb36-2074-4a65-99ee-78e2feff08e7}, !- Handle
  ConductionTransferFunction,             !- Algorithm
  200;                                    !- Surface Temperature Upper Limit {F}

OS:ZoneAirHeatBalanceAlgorithm,
  {72c34db2-0fa0-42fa-a519-73bbe70868b1}, !- Handle
  AnalyticalSolution;                     !- Algorithm

OS:ConvergenceLimits,
  {c149da4e-53ff-4202-b4c4-ad4c0e50cdab}; !- Handle

OS:ShadowCalculation,
  {14aac72b-55ed-4d6e-b74c-2c42b419d432}, !- Handle
  7,                                      !- Calculation Frequency
  15000;                                  !- Maximum Figures in Shadow Overlap Calculations

OS:Site,
  {104d501e-c899-4c98-81a5-1f2cc0e31384}, !- Handle
  Site 1,                                 !- Name
  41.77,                                  !- Latitude {deg}
  -87.75,                                 !- Longitude {deg}
  -6,                                     !- Time Zone {hr}
  190,                                    !- Elevation {m}
  ;                                       !- Terrain

OS:Site:GroundTemperature:BuildingSurface,
  {3f6d1327-d9f9-42c9-8fa0-bc5ff458e89f}, !- Handle
  19.527,                                 !- January Ground Temperature {C}
  19.502,                                 !- February Ground Temperature {C}
  19.536,                                 !- March Ground Temperature {C}
  19.598,                                 !- April Ground Temperature {C}
  20.002,                                 !- May Ground Temperature {C}
  21.64,                                  !- June Ground Temperature {C}
  22.225,                                 !- July Ground Temperature {C}
  22.375,                                 !- August Ground Temperature {C}
  21.449,                                 !- September Ground Temperature {C}
  20.121,                                 !- October Ground Temperature {C}
  19.802,                                 !- November Ground Temperature {C}
  19.633;                                 !- December Ground Temperature {C}

OS:Site:WaterMainsTemperature,
  {492d6a5c-e86c-4c04-9b7d-045c634c20d3}, !- Handle
  Correlation,                            !- Calculation Method
  ,                                       !- Temperature Schedule Name
  9.69,                                   !- Annual Average Outdoor Air Temperature {C}
  28.1;                                   !- Maximum Difference In Monthly Average Outdoor Air Temperatures {deltaC}

OS:SizingPeriod:DesignDay,
  {dbc0d82e-e54c-407c-8272-e059101aa561}, !- Handle
  Sizing Period Design Day 1,             !- Name
  -20.6,                                  !- Maximum Dry-Bulb Temperature {C}
  0,                                      !- Daily Dry-Bulb Temperature Range {deltaC}
  -20.6,                                  !- Humidity Indicating Conditions at Maximum Dry-Bulb {BasedOnField A3}
  99063,                                  !- Barometric Pressure {Pa}
  4.9,                                    !- Wind Speed {m/s}
  270,                                    !- Wind Direction {deg}
  0,                                      !- Sky Clearness
  0,                                      !- Rain Indicator
  0,                                      !- Snow Indicator
  21,                                     !- Day of Month
  1,                                      !- Month
  WinterDesignDay,                        !- Day Type
  0,                                      !- Daylight Saving Time Indicator
  WetBulb,                                !- Humidity Indicating Type
  ,                                       !- Humidity Indicating Day Schedule Name
  DefaultMultipliers,                     !- Dry-Bulb Temperature Range Modifier Type
  ,                                       !- Dry-Bulb Temperature Range Modifier Schedule Name
  AshraeClearSky;                         !- Solar Model Indicator

OS:SizingPeriod:DesignDay,
  {0d7a9eb6-95c7-4b6f-a8fe-9d7c46f96c3a}, !- Handle
  Sizing Period Design Day 2,             !- Name
  33.2,                                   !- Maximum Dry-Bulb Temperature {C}
  10.7,                                   !- Daily Dry-Bulb Temperature Range {deltaC}
  23.8,                                   !- Humidity Indicating Conditions at Maximum Dry-Bulb {BasedOnField A3}
  99063,                                  !- Barometric Pressure {Pa}
  5.3,                                    !- Wind Speed {m/s}
  230,                                    !- Wind Direction {deg}
  1,                                      !- Sky Clearness
  0,                                      !- Rain Indicator
  0,                                      !- Snow Indicator
  21,                                     !- Day of Month
  7,                                      !- Month
  SummerDesignDay,                        !- Day Type
  0,                                      !- Daylight Saving Time Indicator
  WetBulb,                                !- Humidity Indicating Type
  ,                                       !- Humidity Indicating Day Schedule Name
  DefaultMultipliers,                     !- Dry-Bulb Temperature Range Modifier Type
  ,                                       !- Dry-Bulb Temperature Range Modifier Schedule Name
  AshraeClearSky;                         !- Solar Model Indicator

OS:ScheduleTypeLimits,
  {e1d6e568-2701-411d-b213-26b284d8638c}, !- Handle
  Temperature,                            !- Name
  -60,                                    !- Lower Limit Value {BasedOnField A4}
  200,                                    !- Upper Limit Value {BasedOnField A4}
  CONTINUOUS,                             !- Numeric Type
  Temperature;                            !- Unit Type

OS:DefaultScheduleSet,
  {20ee9c7d-cc88-4c61-946f-7401f3736499}, !- Handle
  Default Schedules,                      !- Name
  ,                                       !- Hours of Operation Schedule Name
  {36e79ec7-1f3b-4b9b-999b-cfddd6efa1c2}, !- Number of People Schedule Name
  {b4804f7c-9308-4e04-bbd2-6f1c3339203a}, !- People Activity Level Schedule Name
  {a4024540-3387-44d5-ad53-0ff117fa2430}, !- Lighting Schedule Name
  {cb17c7b0-4d43-4544-9edc-8747150855ff}, !- Electric Equipment Schedule Name
  {d6ba7824-4bd2-456f-8a04-acd9b9449098}, !- Gas Equipment Schedule Name
  {4ab3a361-0a9b-437e-8163-d681cb6c78f8}, !- Hot Water Equipment Schedule Name
  {045ecddb-9166-4f52-8bfe-f190f7b9dbb6}, !- Infiltration Schedule Name
  ,                                       !- Steam Equipment Schedule Name
  ;                                       !- Other Equipment Schedule Name

OS:Schedule:Ruleset,
  {36e79ec7-1f3b-4b9b-999b-cfddd6efa1c2}, !- Handle
  Medium Office Number of People Schedule, !- Name
  {88f12ff7-e314-45c9-9b62-906409698418}, !- Schedule Type Limits Name
  {7f8b01fb-6394-4a7e-86e1-596e2af7c2d2}, !- Default Day Schedule Name
  {8b3fbd01-db76-4b45-85a3-fdfb1e349696}; !- Summer Design Day Schedule Name

OS:Schedule:Day,
  {7f8b01fb-6394-4a7e-86e1-596e2af7c2d2}, !- Handle
  Medium Office Number of People All Other Days Schedule, !- Name
  {88f12ff7-e314-45c9-9b62-906409698418}, !- Schedule Type Limits Name
  ,                                       !- Interpolate to Timestep
  24,                                     !- Hour 1
  0,                                      !- Minute 1
  0;                                      !- Value Until Time 1

OS:Schedule:Day,
  {47f33019-5194-4fba-8e95-aa00105c65f8}, !- Handle
  Medium Office Number of People Summer Design Day Schedule, !- Name
  ,                                       !- Schedule Type Limits Name
  ,                                       !- Interpolate to Timestep
  6,                                      !- Hour 1
  0,                                      !- Minute 1
  0,                                      !- Value Until Time 1
  22,                                     !- Hour 2
  0,                                      !- Minute 2
  1,                                      !- Value Until Time 2
  24,                                     !- Hour 3
  0,                                      !- Minute 3
  0.05;                                   !- Value Until Time 3

OS:Schedule:Day,
  {8b3fbd01-db76-4b45-85a3-fdfb1e349696}, !- Handle
  Medium Office Number of People Summer Design Day Schedule 1, !- Name
  {88f12ff7-e314-45c9-9b62-906409698418}, !- Schedule Type Limits Name
  ,                                       !- Interpolate to Timestep
  6,                                      !- Hour 1
  0,                                      !- Minute 1
  0,                                      !- Value Until Time 1
  22,                                     !- Hour 2
  0,                                      !- Minute 2
  1,                                      !- Value Until Time 2
  24,                                     !- Hour 3
  0,                                      !- Minute 3
  0.05;                                   !- Value Until Time 3

OS:Schedule:Rule,
  {13a6f063-7844-4c0c-a431-64ab5499cf1a}, !- Handle
  Medium Office Number of People Schedule Weekdays Rule, !- Name
  {36e79ec7-1f3b-4b9b-999b-cfddd6efa1c2}, !- Schedule Ruleset Name
  1,                                      !- Rule Order
  {085ecada-42ae-4ac2-9e84-01e28d9870c0}, !- Day Schedule Name
  ,                                       !- Apply Sunday
  Yes,                                    !- Apply Monday
  Yes,                                    !- Apply Tuesday
  Yes,                                    !- Apply Wednesday
  Yes,                                    !- Apply Thursday
  Yes;                                    !- Apply Friday

OS:Schedule:Day,
  {085ecada-42ae-4ac2-9e84-01e28d9870c0}, !- Handle
  Medium Office Number of People Weekdays Schedule, !- Name
  {88f12ff7-e314-45c9-9b62-906409698418}, !- Schedule Type Limits Name
  ,                                       !- Interpolate to Timestep
  6,                                      !- Hour 1
  0,                                      !- Minute 1
  0,                                      !- Value Until Time 1
  7,                                      !- Hour 2
  0,                                      !- Minute 2
  0.1,                                    !- Value Until Time 2
  8,                                      !- Hour 3
  0,                                      !- Minute 3
  0.2,                                    !- Value Until Time 3
  12,                                     !- Hour 4
  0,                                      !- Minute 4
  0.95,                                   !- Value Until Time 4
  13,                                     !- Hour 5
  0,                                      !- Minute 5
  0.5,                                    !- Value Until Time 5
  17,                                     !- Hour 6
  0,                                      !- Minute 6
  0.95,                                   !- Value Until Time 6
  18,                                     !- Hour 7
  0,                                      !- Minute 7
  0.7,                                    !- Value Until Time 7
  20,                                     !- Hour 8
  0,                                      !- Minute 8
  0.4,                                    !- Value Until Time 8
  22,                                     !- Hour 9
  0,                                      !- Minute 9
  0.1,                                    !- Value Until Time 9
  24,                                     !- Hour 10
  0,                                      !- Minute 10
  0.05;                                   !- Value Until Time 10

OS:Schedule:Rule,
  {e8aebc1a-0ff3-4b20-8e26-069d6941591e}, !- Handle
  Medium Office Number of People Schedule Saturday Rule, !- Name
  {36e79ec7-1f3b-4b9b-999b-cfddd6efa1c2}, !- Schedule Ruleset Name
  0,                                      !- Rule Order
  {821744b5-e775-4daa-b875-58fb647d1835}, !- Day Schedule Name
  ,                                       !- Apply Sunday
  ,                                       !- Apply Monday
  ,                                       !- Apply Tuesday
  ,                                       !- Apply Wednesday
  ,                                       !- Apply Thursday
  ,                                       !- Apply Friday
  Yes;                                    !- Apply Saturday

OS:Schedule:Day,
  {821744b5-e775-4daa-b875-58fb647d1835}, !- Handle
  Medium Office Number of People Saturday Schedule, !- Name
  {88f12ff7-e314-45c9-9b62-906409698418}, !- Schedule Type Limits Name
  ,                                       !- Interpolate to Timestep
  6,                                      !- Hour 1
  0,                                      !- Minute 1
  0,                                      !- Value Until Time 1
  8,                                      !- Hour 2
  0,                                      !- Minute 2
  0.1,                                    !- Value Until Time 2
  14,                                     !- Hour 3
  0,                                      !- Minute 3
  0.5,                                    !- Value Until Time 3
  17,                                     !- Hour 4
  0,                                      !- Minute 4
  0.1,                                    !- Value Until Time 4
  24,                                     !- Hour 5
  0,                                      !- Minute 5
  0;                                      !- Value Until Time 5

OS:ScheduleTypeLimits,
  {88f12ff7-e314-45c9-9b62-906409698418}, !- Handle
  Fractional,                             !- Name
  0,                                      !- Lower Limit Value {BasedOnField A4}
  1,                                      !- Upper Limit Value {BasedOnField A4}
  Continuous;                             !- Numeric Type

OS:Schedule:Ruleset,
  {b4804f7c-9308-4e04-bbd2-6f1c3339203a}, !- Handle
  Medium Office People Activity Level Schedule, !- Name
  {9c65122a-07b8-4b5a-8003-ce9cbbd5b1f3}, !- Schedule Type Limits Name
  {831f89ad-7b62-4fc9-93f4-8bcf528c101a}; !- Default Day Schedule Name

OS:Schedule:Day,
  {831f89ad-7b62-4fc9-93f4-8bcf528c101a}, !- Handle
  Medium Office People Activity Level All Days Schedule, !- Name
  {9c65122a-07b8-4b5a-8003-ce9cbbd5b1f3}, !- Schedule Type Limits Name
  ,                                       !- Interpolate to Timestep
  24,                                     !- Hour 1
  0,                                      !- Minute 1
  120;                                    !- Value Until Time 1

OS:ScheduleTypeLimits,
  {9c65122a-07b8-4b5a-8003-ce9cbbd5b1f3}, !- Handle
  ActivityLevel,                          !- Name
  0,                                      !- Lower Limit Value {BasedOnField A4}
  ,                                       !- Upper Limit Value {BasedOnField A4}
  Continuous,                             !- Numeric Type
  ActivityLevel;                          !- Unit Type

OS:Schedule:Ruleset,
  {a4024540-3387-44d5-ad53-0ff117fa2430}, !- Handle
  Medium Office Lighting Schedule,        !- Name
  {88f12ff7-e314-45c9-9b62-906409698418}, !- Schedule Type Limits Name
  {e5e4820a-2185-4205-87ab-26edea66a2be}, !- Default Day Schedule Name
  {baa6c34a-f312-44be-8972-053b8fce0bc9}, !- Summer Design Day Schedule Name
  {8ef3953b-818e-48ee-8ac2-93ca4b2c54d9}; !- Winter Design Day Schedule Name

OS:Schedule:Day,
  {e5e4820a-2185-4205-87ab-26edea66a2be}, !- Handle
  Medium Office Lighting All Other Days Schedule, !- Name
  {88f12ff7-e314-45c9-9b62-906409698418}, !- Schedule Type Limits Name
  ,                                       !- Interpolate to Timestep
  24,                                     !- Hour 1
  0,                                      !- Minute 1
  0.05;                                   !- Value Until Time 1

OS:Schedule:Day,
  {b69b7dbe-f4f7-4442-bc47-1a2c866b8402}, !- Handle
  Medium Office Lighting Summer Design Day Schedule, !- Name
  ,                                       !- Schedule Type Limits Name
  ,                                       !- Interpolate to Timestep
  6,                                      !- Hour 1
  0,                                      !- Minute 1
  1,                                      !- Value Until Time 1
  24,                                     !- Hour 2
  0,                                      !- Minute 2
  0;                                      !- Value Until Time 2

OS:Schedule:Day,
  {baa6c34a-f312-44be-8972-053b8fce0bc9}, !- Handle
  Medium Office Lighting Summer Design Day Schedule 1, !- Name
  {88f12ff7-e314-45c9-9b62-906409698418}, !- Schedule Type Limits Name
  ,                                       !- Interpolate to Timestep
  6,                                      !- Hour 1
  0,                                      !- Minute 1
  1,                                      !- Value Until Time 1
  24,                                     !- Hour 2
  0,                                      !- Minute 2
  0;                                      !- Value Until Time 2

OS:Schedule:Day,
  {0cff56b3-dc41-406a-86fa-7278ef52f9e2}, !- Handle
  Medium Office Lighting Winter Design Day Schedule, !- Name
  ,                                       !- Schedule Type Limits Name
  ,                                       !- Interpolate to Timestep
  24,                                     !- Hour 1
  0,                                      !- Minute 1
  0;                                      !- Value Until Time 1

OS:Schedule:Day,
  {8ef3953b-818e-48ee-8ac2-93ca4b2c54d9}, !- Handle
  Medium Office Lighting Winter Design Day Schedule 1, !- Name
  {88f12ff7-e314-45c9-9b62-906409698418}, !- Schedule Type Limits Name
  ,                                       !- Interpolate to Timestep
  24,                                     !- Hour 1
  0,                                      !- Minute 1
  0;                                      !- Value Until Time 1

OS:Schedule:Rule,
  {1327ed18-124f-4d6e-b2c3-6f83d3e78c15}, !- Handle
  Medium Office Lighting Schedule Weekdays Rule, !- Name
  {a4024540-3387-44d5-ad53-0ff117fa2430}, !- Schedule Ruleset Name
  1,                                      !- Rule Order
  {4de5ddcd-aaac-4ee6-b752-69b565e6dfd8}, !- Day Schedule Name
  ,                                       !- Apply Sunday
  Yes,                                    !- Apply Monday
  Yes,                                    !- Apply Tuesday
  Yes,                                    !- Apply Wednesday
  Yes,                                    !- Apply Thursday
  Yes;                                    !- Apply Friday

OS:Schedule:Day,
  {4de5ddcd-aaac-4ee6-b752-69b565e6dfd8}, !- Handle
  Medium Office Lighting Weekdays Schedule, !- Name
  {88f12ff7-e314-45c9-9b62-906409698418}, !- Schedule Type Limits Name
  ,                                       !- Interpolate to Timestep
  5,                                      !- Hour 1
  0,                                      !- Minute 1
  0.05,                                   !- Value Until Time 1
  7,                                      !- Hour 2
  0,                                      !- Minute 2
  0.1,                                    !- Value Until Time 2
  8,                                      !- Hour 3
  0,                                      !- Minute 3
  0.3,                                    !- Value Until Time 3
  17,                                     !- Hour 4
  0,                                      !- Minute 4
  0.9,                                    !- Value Until Time 4
  18,                                     !- Hour 5
  0,                                      !- Minute 5
  0.7,                                    !- Value Until Time 5
  20,                                     !- Hour 6
  0,                                      !- Minute 6
  0.5,                                    !- Value Until Time 6
  22,                                     !- Hour 7
  0,                                      !- Minute 7
  0.3,                                    !- Value Until Time 7
  23,                                     !- Hour 8
  0,                                      !- Minute 8
  0.1,                                    !- Value Until Time 8
  24,                                     !- Hour 9
  0,                                      !- Minute 9
  0.05;                                   !- Value Until Time 9

OS:Schedule:Rule,
  {cb9a92c1-1068-4c55-8ed2-88d5c0586a83}, !- Handle
  Medium Office Lighting Schedule Saturday Rule, !- Name
  {a4024540-3387-44d5-ad53-0ff117fa2430}, !- Schedule Ruleset Name
  0,                                      !- Rule Order
  {ffcfa7db-57b8-4a39-b6a9-80055886a52e}, !- Day Schedule Name
  ,                                       !- Apply Sunday
  ,                                       !- Apply Monday
  ,                                       !- Apply Tuesday
  ,                                       !- Apply Wednesday
  ,                                       !- Apply Thursday
  ,                                       !- Apply Friday
  Yes;                                    !- Apply Saturday

OS:Schedule:Day,
  {ffcfa7db-57b8-4a39-b6a9-80055886a52e}, !- Handle
  Medium Office Lighting Saturday Schedule, !- Name
  {88f12ff7-e314-45c9-9b62-906409698418}, !- Schedule Type Limits Name
  ,                                       !- Interpolate to Timestep
  6,                                      !- Hour 1
  0,                                      !- Minute 1
  0.05,                                   !- Value Until Time 1
  8,                                      !- Hour 2
  0,                                      !- Minute 2
  0.1,                                    !- Value Until Time 2
  14,                                     !- Hour 3
  0,                                      !- Minute 3
  0.5,                                    !- Value Until Time 3
  17,                                     !- Hour 4
  0,                                      !- Minute 4
  0.15,                                   !- Value Until Time 4
  24,                                     !- Hour 5
  0,                                      !- Minute 5
  0.05;                                   !- Value Until Time 5

OS:Schedule:Ruleset,
  {cb17c7b0-4d43-4544-9edc-8747150855ff}, !- Handle
  Medium Office Electric Equipment Schedule, !- Name
  {88f12ff7-e314-45c9-9b62-906409698418}, !- Schedule Type Limits Name
  {308d9d00-7efe-4a88-80db-2d075403dbaa}, !- Default Day Schedule Name
  {7e008249-a192-4904-b85e-9bb6897f2b5c}, !- Summer Design Day Schedule Name
  {8883856a-488a-4da4-8d9c-f245d792ccde}; !- Winter Design Day Schedule Name

OS:Schedule:Day,
  {308d9d00-7efe-4a88-80db-2d075403dbaa}, !- Handle
  Medium Office Electric Equipment All Other Days Schedule, !- Name
  {88f12ff7-e314-45c9-9b62-906409698418}, !- Schedule Type Limits Name
  ,                                       !- Interpolate to Timestep
  24,                                     !- Hour 1
  0,                                      !- Minute 1
  0.3;                                    !- Value Until Time 1

OS:Schedule:Day,
  {dc168302-1383-4d66-9291-ed24b1ceba9e}, !- Handle
  Medium Office Electric Equipment Summer Design Day Schedule, !- Name
  ,                                       !- Schedule Type Limits Name
  ,                                       !- Interpolate to Timestep
  6,                                      !- Hour 1
  0,                                      !- Minute 1
  1,                                      !- Value Until Time 1
  24,                                     !- Hour 2
  0,                                      !- Minute 2
  0;                                      !- Value Until Time 2

OS:Schedule:Day,
  {7e008249-a192-4904-b85e-9bb6897f2b5c}, !- Handle
  Medium Office Electric Equipment Summer Design Day Schedule 1, !- Name
  {88f12ff7-e314-45c9-9b62-906409698418}, !- Schedule Type Limits Name
  ,                                       !- Interpolate to Timestep
  6,                                      !- Hour 1
  0,                                      !- Minute 1
  1,                                      !- Value Until Time 1
  24,                                     !- Hour 2
  0,                                      !- Minute 2
  0;                                      !- Value Until Time 2

OS:Schedule:Day,
  {ba20bb0a-b815-4129-aa9c-746160de2e84}, !- Handle
  Medium Office Electric Equipment Winter Design Day Schedule, !- Name
  ,                                       !- Schedule Type Limits Name
  ,                                       !- Interpolate to Timestep
  24,                                     !- Hour 1
  0,                                      !- Minute 1
  0;                                      !- Value Until Time 1

OS:Schedule:Day,
  {8883856a-488a-4da4-8d9c-f245d792ccde}, !- Handle
  Medium Office Electric Equipment Winter Design Day Schedule 1, !- Name
  {88f12ff7-e314-45c9-9b62-906409698418}, !- Schedule Type Limits Name
  ,                                       !- Interpolate to Timestep
  24,                                     !- Hour 1
  0,                                      !- Minute 1
  0;                                      !- Value Until Time 1

OS:Schedule:Rule,
  {d4fdf202-c9a9-4552-9cd7-07d8ed56004d}, !- Handle
  Medium Office Electric Equipment Schedule Weekdays Rule, !- Name
  {cb17c7b0-4d43-4544-9edc-8747150855ff}, !- Schedule Ruleset Name
  1,                                      !- Rule Order
  {fd839aed-fbcc-4fd3-a8cc-540b08475e69}, !- Day Schedule Name
  ,                                       !- Apply Sunday
  Yes,                                    !- Apply Monday
  Yes,                                    !- Apply Tuesday
  Yes,                                    !- Apply Wednesday
  Yes,                                    !- Apply Thursday
  Yes;                                    !- Apply Friday

OS:Schedule:Day,
  {fd839aed-fbcc-4fd3-a8cc-540b08475e69}, !- Handle
  Medium Office Electric Equipment Weekdays Schedule, !- Name
  {88f12ff7-e314-45c9-9b62-906409698418}, !- Schedule Type Limits Name
  ,                                       !- Interpolate to Timestep
  8,                                      !- Hour 1
  0,                                      !- Minute 1
  0.4,                                    !- Value Until Time 1
  12,                                     !- Hour 2
  0,                                      !- Minute 2
  0.9,                                    !- Value Until Time 2
  13,                                     !- Hour 3
  0,                                      !- Minute 3
  0.8,                                    !- Value Until Time 3
  17,                                     !- Hour 4
  0,                                      !- Minute 4
  0.9,                                    !- Value Until Time 4
  18,                                     !- Hour 5
  0,                                      !- Minute 5
  0.8,                                    !- Value Until Time 5
  20,                                     !- Hour 6
  0,                                      !- Minute 6
  0.6,                                    !- Value Until Time 6
  22,                                     !- Hour 7
  0,                                      !- Minute 7
  0.5,                                    !- Value Until Time 7
  24,                                     !- Hour 8
  0,                                      !- Minute 8
  0.4;                                    !- Value Until Time 8

OS:Schedule:Rule,
  {a7a5bfef-a028-417b-9386-f3b52f469dbb}, !- Handle
  Medium Office Electric Equipment Schedule Saturday Rule, !- Name
  {cb17c7b0-4d43-4544-9edc-8747150855ff}, !- Schedule Ruleset Name
  0,                                      !- Rule Order
  {3cb8736b-8419-40bc-83ed-d14a2c5689e7}, !- Day Schedule Name
  ,                                       !- Apply Sunday
  ,                                       !- Apply Monday
  ,                                       !- Apply Tuesday
  ,                                       !- Apply Wednesday