
OS:Version,
  {00739a54-2a16-407f-ac9c-536b134da771}, !- Handle
  1.10.0;                                 !- Version Identifier

OS:Construction,
  {24393e15-5178-4bdd-9e79-8bdb26547610}, !- Handle
  Interior Window,                        !- Name
  ,                                       !- Surface Rendering Name
  {3869ddaa-9c2e-4489-bc02-c98bfdfb95f3}; !- Layer 1

OS:WindowMaterial:SimpleGlazingSystem,
  {3869ddaa-9c2e-4489-bc02-c98bfdfb95f3}, !- Handle
  Simple Glazing,                         !- Name
  3.23646,                                !- U-Factor {W/m2-K}
  0.39,                                   !- Solar Heat Gain Coefficient
  0.6;                                    !- Visible Transmittance

OS:ComponentData,
  {84ac7099-63df-4f6f-b512-737cc4dcfc9c}, !- Handle
  Component Data 1,                       !- Name
  {2c428194-6da0-421b-b9d0-87a832374ecb}, !- UUID
  {457d76fa-6ade-457e-9c56-0d33e1fbea61}, !- Version UUID
  1450289833,                             !- Creation Timestamp
  1450289833,                             !- Version Timestamp
  {24393e15-5178-4bdd-9e79-8bdb26547610}, !- Name of Object 1
  {3869ddaa-9c2e-4489-bc02-c98bfdfb95f3}; !- Name of Object 2

