
OS:Version,
  {1619bfc3-02f4-4ff2-bd17-b362b4c93df7}, !- Handle
  1.10.0;                                 !- Version Identifier

OS:SimulationControl,
  {5397f726-535b-4710-8792-4dd525abca33}, !- Handle
  Yes,                                    !- Do Zone Sizing Calculation
  Yes,                                    !- Do System Sizing Calculation
  ,                                       !- Do Plant Sizing Calculation
  No,                                     !- Run Simulation for Sizing Periods
  Yes;                                    !- Run Simulation for Weather File Run Periods

OS:Timestep,
  {0307a58c-5a9f-4284-b42b-6b9df47fe7c0}, !- Handle
  6;                                      !- Number of Timesteps per Hour

OS:RunPeriod,
  {86130f40-f7e4-41de-b505-d1407de9ceee}, !- Handle
  Run Period 1,                           !- Name
  1,                                      !- Begin Month
  1,                                      !- Begin Day of Month
  12,                                     !- End Month
  31,                                     !- End Day of Month
  No,                                     !- Use Weather File Holidays and Special Days
  No,                                     !- Use Weather File Daylight Saving Period
  No,                                     !- Apply Weekend Holiday Rule
  Yes,                                    !- Use Weather File Rain Indicators
  Yes,                                    !- Use Weather File Snow Indicators
  1;                                      !- Number of Times Runperiod to be Repeated

OS:SurfaceConvectionAlgorithm:Inside,
  {35ac67d4-50f4-4eaa-9ae3-c9b42bafbc1f}, !- Handle
  TARP;                                   !- Algorithm

OS:SurfaceConvectionAlgorithm:Outside,
  {c7fa0921-9257-46fe-bdfc-ccbfbca4484d}, !- Handle
  DOE-2;                                  !- Algorithm

OS:HeatBalanceAlgorithm,
  {1c8f71eb-75e7-4e1c-ae63-0565504c8c57}, !- Handle
  ConductionTransferFunction,             !- Algorithm
  200;                                    !- Surface Temperature Upper Limit {C}

OS:ZoneAirHeatBalanceAlgorithm,
  {cd3b84ce-dc3f-4c0d-98d7-deed882ba66d}, !- Handle
  ThirdOrderBackwardDifference;           !- Algorithm

OS:ConvergenceLimits,
  {b974af74-dfda-42a9-a6ff-f81ab2106d75}, !- Handle
  1;                                      !- Minimum System Timestep {minutes}

OS:ShadowCalculation,
  {bb33716a-d329-4168-9503-17419b4403f5}, !- Handle
  20,                                     !- Calculation Frequency
  15000;                                  !- Maximum Figures in Shadow Overlap Calculations

OS:Site,
  {8355400a-b554-49be-8413-b34d162db49d}, !- Handle
  Site 1,                                 !- Name
  41.77,                                  !- Latitude {deg}
  -87.75,                                 !- Longitude {deg}
  -6,                                     !- Time Zone {hr}
  190,                                    !- Elevation {m}
  ;                                       !- Terrain

OS:Site:GroundTemperature:BuildingSurface,
  {c361b097-e27c-47d6-ab56-756e36a3b17c}, !- Handle
  19.527,                                 !- January Ground Temperature {C}
  19.502,                                 !- February Ground Temperature {C}
  19.536,                                 !- March Ground Temperature {C}
  19.598,                                 !- April Ground Temperature {C}
  20.002,                                 !- May Ground Temperature {C}
  21.64,                                  !- June Ground Temperature {C}
  22.225,                                 !- July Ground Temperature {C}
  22.375,                                 !- August Ground Temperature {C}
  21.449,                                 !- September Ground Temperature {C}
  20.121,                                 !- October Ground Temperature {C}
  19.802,                                 !- November Ground Temperature {C}
  19.633;                                 !- December Ground Temperature {C}

OS:Site:WaterMainsTemperature,
  {f946ef9c-4840-4faf-ae3f-2d7cbcda9c46}, !- Handle
  Correlation,                            !- Calculation Method
  ,                                       !- Temperature Schedule Name
  9.69,                                   !- Annual Average Outdoor Air Temperature {C}
  28.1;                                   !- Maximum Difference In Monthly Average Outdoor Air Temperatures {deltaC}

OS:SizingPeriod:DesignDay,
  {9d294227-baac-45a1-8377-c2e696717010}, !- Handle
  Sizing Period Design Day 1,             !- Name
  -20.6,                                  !- Maximum Dry-Bulb Temperature {C}
  0,                                      !- Daily Dry-Bulb Temperature Range {deltaC}
  -20.6,                                  !- Humidity Indicating Conditions at Maximum Dry-Bulb {BasedOnField A3}
  99063,                                  !- Barometric Pressure {Pa}
  4.9,                                    !- Wind Speed {m/s}
  270,                                    !- Wind Direction {deg}
  0,                                      !- Sky Clearness
  0,                                      !- Rain Indicator
  0,                                      !- Snow Indicator
  21,                                     !- Day of Month
  1,                                      !- Month
  WinterDesignDay,                        !- Day Type
  0,                                      !- Daylight Saving Time Indicator
  WetBulb,                                !- Humidity Indicating Type
  ,                                       !- Humidity Indicating Day Schedule Name
  DefaultMultipliers,                     !- Dry-Bulb Temperature Range Modifier Type
  ,                                       !- Dry-Bulb Temperature Range Modifier Schedule Name
  AshraeClearSky;                         !- Solar Model Indicator

OS:SizingPeriod:DesignDay,
  {9ebd4eed-9a39-46ac-bc59-6509bc91981d}, !- Handle
  Sizing Period Design Day 2,             !- Name
  33.2,                                   !- Maximum Dry-Bulb Temperature {C}
  10.7,                                   !- Daily Dry-Bulb Temperature Range {deltaC}
  23.8,                                   !- Humidity Indicating Conditions at Maximum Dry-Bulb {BasedOnField A3}
  99063,                                  !- Barometric Pressure {Pa}
  5.3,                                    !- Wind Speed {m/s}
  230,                                    !- Wind Direction {deg}
  1,                                      !- Sky Clearness
  0,                                      !- Rain Indicator
  0,                                      !- Snow Indicator
  21,                                     !- Day of Month
  7,                                      !- Month
  SummerDesignDay,                        !- Day Type
  0,                                      !- Daylight Saving Time Indicator
  WetBulb,                                !- Humidity Indicating Type
  ,                                       !- Humidity Indicating Day Schedule Name
  DefaultMultipliers,                     !- Dry-Bulb Temperature Range Modifier Type
  ,                                       !- Dry-Bulb Temperature Range Modifier Schedule Name
  AshraeClearSky;                         !- Solar Model Indicator

OS:ScheduleTypeLimits,
  {13a750d7-a5d4-495a-84be-3a1ab6328634}, !- Handle
  Temperature,                            !- Name
  -60,                                    !- Lower Limit Value {BasedOnField A4}
  200,                                    !- Upper Limit Value {BasedOnField A4}
  CONTINUOUS,                             !- Numeric Type
  Temperature;                            !- Unit Type

OS:DefaultScheduleSet,
  {6278f71e-bf29-470c-b175-dea696bb9ba2}, !- Handle
  Default Schedules,                      !- Name
  ,                                       !- Hours of Operation Schedule Name
  {7a6ddb73-619d-4b7a-8b1b-5598e5d9c8fb}, !- Number of People Schedule Name
  {8e0592f2-10d9-45d8-b6c7-f7d5841a3240}, !- People Activity Level Schedule Name
  {f6a2ac76-247c-4b6d-84f8-193db3094a12}, !- Lighting Schedule Name
  {35e1fec5-e71a-4779-b9cb-c5e7ccdb6f30}, !- Electric Equipment Schedule Name
  {94078f4c-c5b4-40b2-b210-cb87f3da567b}, !- Gas Equipment Schedule Name
  {4c943ab3-1103-4e97-b05d-aa376358ccbb}, !- Hot Water Equipment Schedule Name
  {0caef1e5-63b5-4d86-a824-80837dcbc431}, !- Infiltration Schedule Name
  ,                                       !- Steam Equipment Schedule Name
  ;                                       !- Other Equipment Schedule Name

OS:Schedule:Ruleset,
  {7a6ddb73-619d-4b7a-8b1b-5598e5d9c8fb}, !- Handle
  Medium Office Number of People Schedule, !- Name
  {b44c0ada-07b9-4fb5-9f8b-9ff531899ec1}, !- Schedule Type Limits Name
  {f9b0bad5-3137-4b89-8798-733e3b25fe03}, !- Default Day Schedule Name
  {3d1e2e71-607c-4e84-8474-8d9881409e23}; !- Summer Design Day Schedule Name

OS:Schedule:Day,
  {f9b0bad5-3137-4b89-8798-733e3b25fe03}, !- Handle
  Medium Office Number of People All Other Days Schedule, !- Name
  {b44c0ada-07b9-4fb5-9f8b-9ff531899ec1}, !- Schedule Type Limits Name
  ,                                       !- Interpolate to Timestep
  24,                                     !- Hour 1
  0,                                      !- Minute 1
  0;                                      !- Value Until Time 1

OS:Schedule:Day,
  {fd493b9e-0701-4661-8cc8-1e82bac80efe}, !- Handle
  Medium Office Number of People Summer Design Day Schedule, !- Name
  ,                                       !- Schedule Type Limits Name
  ,                                       !- Interpolate to Timestep
  6,                                      !- Hour 1
  0,                                      !- Minute 1
  0,                                      !- Value Until Time 1
  22,                                     !- Hour 2
  0,                                      !- Minute 2
  1,                                      !- Value Until Time 2
  24,                                     !- Hour 3
  0,                                      !- Minute 3
  0.05;                                   !- Value Until Time 3

OS:Schedule:Day,
  {3d1e2e71-607c-4e84-8474-8d9881409e23}, !- Handle
  Medium Office Number of People Summer Design Day Schedule 1, !- Name
  {b44c0ada-07b9-4fb5-9f8b-9ff531899ec1}, !- Schedule Type Limits Name
  ,                                       !- Interpolate to Timestep
  6,                                      !- Hour 1
  0,                                      !- Minute 1
  0,                                      !- Value Until Time 1
  22,                                     !- Hour 2
  0,                                      !- Minute 2
  1,                                      !- Value Until Time 2
  24,                                     !- Hour 3
  0,                                      !- Minute 3
  0.05;                                   !- Value Until Time 3

OS:Schedule:Rule,
  {c0ce667a-bb89-4927-aa87-0f6d69930d3c}, !- Handle
  Medium Office Number of People Schedule Weekdays Rule, !- Name
  {7a6ddb73-619d-4b7a-8b1b-5598e5d9c8fb}, !- Schedule Ruleset Name
  1,                                      !- Rule Order
  {48c2e0ce-569e-463d-bc71-0259087133ef}, !- Day Schedule Name
  ,                                       !- Apply Sunday
  Yes,                                    !- Apply Monday
  Yes,                                    !- Apply Tuesday
  Yes,                                    !- Apply Wednesday
  Yes,                                    !- Apply Thursday
  Yes;                                    !- Apply Friday

OS:Schedule:Day,
  {48c2e0ce-569e-463d-bc71-0259087133ef}, !- Handle
  Medium Office Number of People Weekdays Schedule, !- Name
  {b44c0ada-07b9-4fb5-9f8b-9ff531899ec1}, !- Schedule Type Limits Name
  ,                                       !- Interpolate to Timestep
  6,                                      !- Hour 1
  0,                                      !- Minute 1
  0,                                      !- Value Until Time 1
  7,                                      !- Hour 2
  0,                                      !- Minute 2
  0.1,                                    !- Value Until Time 2
  8,                                      !- Hour 3
  0,                                      !- Minute 3
  0.2,                                    !- Value Until Time 3
  12,                                     !- Hour 4
  0,                                      !- Minute 4
  0.95,                                   !- Value Until Time 4
  13,                                     !- Hour 5
  0,                                      !- Minute 5
  0.5,                                    !- Value Until Time 5
  17,                                     !- Hour 6
  0,                                      !- Minute 6
  0.95,                                   !- Value Until Time 6
  18,                                     !- Hour 7
  0,                                      !- Minute 7
  0.7,                                    !- Value Until Time 7
  20,                                     !- Hour 8
  0,                                      !- Minute 8
  0.4,                                    !- Value Until Time 8
  22,                                     !- Hour 9
  0,                                      !- Minute 9
  0.1,                                    !- Value Until Time 9
  24,                                     !- Hour 10
  0,                                      !- Minute 10
  0.05;                                   !- Value Until Time 10

OS:Schedule:Rule,
  {0d0c334c-f708-4b31-8793-bd83017a9eb0}, !- Handle
  Medium Office Number of People Schedule Saturday Rule, !- Name
  {7a6ddb73-619d-4b7a-8b1b-5598e5d9c8fb}, !- Schedule Ruleset Name
  0,                                      !- Rule Order
  {ba8bf4ad-fe3f-44ed-9936-673b9d430ef5}, !- Day Schedule Name
  ,                                       !- Apply Sunday
  ,                                       !- Apply Monday
  ,                                       !- Apply Tuesday
  ,                                       !- Apply Wednesday
  ,                                       !- Apply Thursday
  ,                                       !- Apply Friday
  Yes;                                    !- Apply Saturday

OS:Schedule:Day,
  {ba8bf4ad-fe3f-44ed-9936-673b9d430ef5}, !- Handle
  Medium Office Number of People Saturday Schedule, !- Name
  {b44c0ada-07b9-4fb5-9f8b-9ff531899ec1}, !- Schedule Type Limits Name
  ,                                       !- Interpolate to Timestep
  6,                                      !- Hour 1
  0,                                      !- Minute 1
  0,                                      !- Value Until Time 1
  8,                                      !- Hour 2
  0,                                      !- Minute 2
  0.1,                                    !- Value Until Time 2
  14,                                     !- Hour 3
  0,                                      !- Minute 3
  0.5,                                    !- Value Until Time 3
  17,                                     !- Hour 4
  0,                                      !- Minute 4
  0.1,                                    !- Value Until Time 4
  24,                                     !- Hour 5
  0,                                      !- Minute 5
  0;                                      !- Value Until Time 5

OS:ScheduleTypeLimits,
  {b44c0ada-07b9-4fb5-9f8b-9ff531899ec1}, !- Handle
  Fractional,                             !- Name
  0,                                      !- Lower Limit Value {BasedOnField A4}
  1,                                      !- Upper Limit Value {BasedOnField A4}
  Continuous;                             !- Numeric Type

OS:Schedule:Ruleset,
  {8e0592f2-10d9-45d8-b6c7-f7d5841a3240}, !- Handle
  Medium Office People Activity Level Schedule, !- Name
  {df659beb-a64d-4acd-a2de-acfa64f069de}, !- Schedule Type Limits Name
  {9a862c5f-1b1d-465e-918b-f07b283010d3}; !- Default Day Schedule Name

OS:Schedule:Day,
  {9a862c5f-1b1d-465e-918b-f07b283010d3}, !- Handle
  Medium Office People Activity Level All Days Schedule, !- Name
  {df659beb-a64d-4acd-a2de-acfa64f069de}, !- Schedule Type Limits Name
  ,                                       !- Interpolate to Timestep
  24,                                     !- Hour 1
  0,                                      !- Minute 1
  120;                                    !- Value Until Time 1

OS:ScheduleTypeLimits,
  {df659beb-a64d-4acd-a2de-acfa64f069de}, !- Handle
  ActivityLevel,                          !- Name
  0,                                      !- Lower Limit Value {BasedOnField A4}
  ,                                       !- Upper Limit Value {BasedOnField A4}
  Continuous,                             !- Numeric Type
  ActivityLevel;                          !- Unit Type

OS:Schedule:Ruleset,
  {f6a2ac76-247c-4b6d-84f8-193db3094a12}, !- Handle
  Medium Office Lighting Schedule,        !- Name
  {b44c0ada-07b9-4fb5-9f8b-9ff531899ec1}, !- Schedule Type Limits Name
  {672053fb-c902-4cc1-a50e-a7ed040e93a8}, !- Default Day Schedule Name
  {ba082cf5-beeb-491c-8fcb-6fa1b417aaa0}, !- Summer Design Day Schedule Name
  {5fbeefda-6b12-4b24-952f-8bcba7677754}; !- Winter Design Day Schedule Name

OS:Schedule:Day,
  {672053fb-c902-4cc1-a50e-a7ed040e93a8}, !- Handle
  Medium Office Lighting All Other Days Schedule, !- Name
  {b44c0ada-07b9-4fb5-9f8b-9ff531899ec1}, !- Schedule Type Limits Name
  ,                                       !- Interpolate to Timestep
  24,                                     !- Hour 1
  0,                                      !- Minute 1
  0.05;                                   !- Value Until Time 1

OS:Schedule:Day,
  {aff13727-8a55-494e-b47b-879a43d4dc03}, !- Handle
  Medium Office Lighting Summer Design Day Schedule, !- Name
  ,                                       !- Schedule Type Limits Name
  ,                                       !- Interpolate to Timestep
  6,                                      !- Hour 1
  0,                                      !- Minute 1
  1,                                      !- Value Until Time 1
  24,                                     !- Hour 2
  0,                                      !- Minute 2
  0;                                      !- Value Until Time 2

OS:Schedule:Day,
  {ba082cf5-beeb-491c-8fcb-6fa1b417aaa0}, !- Handle
  Medium Office Lighting Summer Design Day Schedule 1, !- Name
  {b44c0ada-07b9-4fb5-9f8b-9ff531899ec1}, !- Schedule Type Limits Name
  ,                                       !- Interpolate to Timestep
  6,                                      !- Hour 1
  0,                                      !- Minute 1
  1,                                      !- Value Until Time 1
  24,                                     !- Hour 2
  0,                                      !- Minute 2
  0;                                      !- Value Until Time 2

OS:Schedule:Day,
  {6dd07c4e-7f59-4027-89f4-b61cb85db47e}, !- Handle
  Medium Office Lighting Winter Design Day Schedule, !- Name
  ,                                       !- Schedule Type Limits Name
  ,                                       !- Interpolate to Timestep
  24,                                     !- Hour 1
  0,                                      !- Minute 1
  0;                                      !- Value Until Time 1

OS:Schedule:Day,
  {5fbeefda-6b12-4b24-952f-8bcba7677754}, !- Handle
  Medium Office Lighting Winter Design Day Schedule 1, !- Name
  {b44c0ada-07b9-4fb5-9f8b-9ff531899ec1}, !- Schedule Type Limits Name
  ,                                       !- Interpolate to Timestep
  24,                                     !- Hour 1
  0,                                      !- Minute 1
  0;                                      !- Value Until Time 1

OS:Schedule:Rule,
  {4da9b42b-9dd2-42ec-b413-5e14a1415e7e}, !- Handle
  Medium Office Lighting Schedule Weekdays Rule, !- Name
  {f6a2ac76-247c-4b6d-84f8-193db3094a12}, !- Schedule Ruleset Name
  1,                                      !- Rule Order
  {2127ef07-e378-4705-9aaa-7d6838e60c8d}, !- Day Schedule Name
  ,                                       !- Apply Sunday
  Yes,                                    !- Apply Monday
  Yes,                                    !- Apply Tuesday
  Yes,                                    !- Apply Wednesday
  Yes,                                    !- Apply Thursday
  Yes;                                    !- Apply Friday

OS:Schedule:Day,
  {2127ef07-e378-4705-9aaa-7d6838e60c8d}, !- Handle
  Medium Office Lighting Weekdays Schedule, !- Name
  {b44c0ada-07b9-4fb5-9f8b-9ff531899ec1}, !- Schedule Type Limits Name
  ,                                       !- Interpolate to Timestep
  5,                                      !- Hour 1
  0,                                      !- Minute 1
  0.05,                                   !- Value Until Time 1
  7,                                      !- Hour 2
  0,                                      !- Minute 2
  0.1,                                    !- Value Until Time 2
  8,                                      !- Hour 3
  0,                                      !- Minute 3
  0.3,                                    !- Value Until Time 3
  17,                                     !- Hour 4
  0,                                      !- Minute 4
  0.9,                                    !- Value Until Time 4
  18,                                     !- Hour 5
  0,                                      !- Minute 5
  0.7,                                    !- Value Until Time 5
  20,                                     !- Hour 6
  0,                                      !- Minute 6
  0.5,                                    !- Value Until Time 6
  22,                                     !- Hour 7
  0,                                      !- Minute 7
  0.3,                                    !- Value Until Time 7
  23,                                     !- Hour 8
  0,                                      !- Minute 8
  0.1,                                    !- Value Until Time 8
  24,                                     !- Hour 9
  0,                                      !- Minute 9
  0.05;                                   !- Value Until Time 9

OS:Schedule:Rule,
  {1d06c33d-b07d-4727-bba6-1445662ccdbe}, !- Handle
  Medium Office Lighting Schedule Saturday Rule, !- Name
  {f6a2ac76-247c-4b6d-84f8-193db3094a12}, !- Schedule Ruleset Name
  0,                                      !- Rule Order
  {95af0b91-1351-4a7b-b2e9-21a038f77967}, !- Day Schedule Name
  ,                                       !- Apply Sunday
  ,                                       !- Apply Monday
  ,                                       !- Apply Tuesday
  ,                                       !- Apply Wednesday
  ,                                       !- Apply Thursday
  ,                                       !- Apply Friday
  Yes;                                    !- Apply Saturday

OS:Schedule:Day,
  {95af0b91-1351-4a7b-b2e9-21a038f77967}, !- Handle
  Medium Office Lighting Saturday Schedule, !- Name
  {b44c0ada-07b9-4fb5-9f8b-9ff531899ec1}, !- Schedule Type Limits Name
  ,                                       !- Interpolate to Timestep
  6,                                      !- Hour 1
  0,                                      !- Minute 1
  0.05,                                   !- Value Until Time 1
  8,                                      !- Hour 2
  0,                                      !- Minute 2
  0.1,                                    !- Value Until Time 2
  14,                                     !- Hour 3
  0,                                      !- Minute 3
  0.5,                                    !- Value Until Time 3
  17,                                     !- Hour 4
  0,                                      !- Minute 4
  0.15,                                   !- Value Until Time 4
  24,                                     !- Hour 5
  0,                                      !- Minute 5
  0.05;                                   !- Value Until Time 5

OS:Schedule:Ruleset,
  {35e1fec5-e71a-4779-b9cb-c5e7ccdb6f30}, !- Handle
  Medium Office Electric Equipment Schedule, !- Name
  {b44c0ada-07b9-4fb5-9f8b-9ff531899ec1}, !- Schedule Type Limits Name
  {a2dbe83d-f392-4af8-a9a7-bac17896656e}, !- Default Day Schedule Name
  {bdafa54e-7894-4ba5-9f5d-fa07e22178c0}, !- Summer Design Day Schedule Name
  {40036a10-20e6-4757-a720-f1678660fc5f}; !- Winter Design Day Schedule Name

OS:Schedule:Day,
  {a2dbe83d-f392-4af8-a9a7-bac17896656e}, !- Handle
  Medium Office Electric Equipment All Other Days Schedule, !- Name
  {b44c0ada-07b9-4fb5-9f8b-9ff531899ec1}, !- Schedule Type Limits Name
  ,                                       !- Interpolate to Timestep
  24,                                     !- Hour 1
  0,                                      !- Minute 1
  0.3;                                    !- Value Until Time 1

OS:Schedule:Day,
  {63b059cc-6516-4be1-be35-2e1a97d624cb}, !- Handle
  Medium Office Electric Equipment Summer Design Day Schedule, !- Name
  ,                                       !- Schedule Type Limits Name
  ,                                       !- Interpolate to Timestep
  6,                                      !- Hour 1
  0,                                      !- Minute 1
  1,                                      !- Value Until Time 1
  24,                                     !- Hour 2
  0,                                      !- Minute 2
  0;                                      !- Value Until Time 2

OS:Schedule:Day,
  {bdafa54e-7894-4ba5-9f5d-fa07e22178c0}, !- Handle
  Medium Office Electric Equipment Summer Design Day Schedule 1, !- Name
  {b44c0ada-07b9-4fb5-9f8b-9ff531899ec1}, !- Schedule Type Limits Name
  ,                                       !- Interpolate to Timestep
  6,                                      !- Hour 1
  0,                                      !- Minute 1
  1,                                      !- Value Until Time 1
  24,                                     !- Hour 2
  0,                                      !- Minute 2
  0;                                      !- Value Until Time 2

OS:Schedule:Day,
  {cef351a2-841d-4b2e-a85d-b3086ca74baf}, !- Handle
  Medium Office Electric Equipment Winter Design Day Schedule, !- Name
  ,                                       !- Schedule Type Limits Name
  ,                                       !- Interpolate to Timestep
  24,                                     !- Hour 1
  0,                                      !- Minute 1
  0;                                      !- Value Until Time 1

OS:Schedule:Day,
  {40036a10-20e6-4757-a720-f1678660fc5f}, !- Handle
  Medium Office Electric Equipment Winter Design Day Schedule 1, !- Name
  {b44c0ada-07b9-4fb5-9f8b-9ff531899ec1}, !- Schedule Type Limits Name
  ,                                       !- Interpolate to Timestep
  24,                                     !- Hour 1
  0,                                      !- Minute 1
  0;                                      !- Value Until Time 1

OS:Schedule:Rule,
  {f2702e70-24f7-423d-9be3-1e0b2333ccf2}, !- Handle
  Medium Office Electric Equipment Schedule Weekdays Rule, !- Name
  {35e1fec5-e71a-4779-b9cb-c5e7ccdb6f30}, !- Schedule Ruleset Name
  1,                                      !- Rule Order
  {e6e52c46-03f2-468b-ba26-dd49da92c01e}, !- Day Schedule Name
  ,                                       !- Apply Sunday
  Yes,                                    !- Apply Monday
  Yes,                                    !- Apply Tuesday
  Yes,                                    !- Apply Wednesday
  Yes,                                    !- Apply Thursday
  Yes;                                    !- Apply Friday

OS:Schedule:Day,
  {e6e52c46-03f2-468b-ba26-dd49da92c01e}, !- Handle
  Medium Office Electric Equipment Weekdays Schedule, !- Name
  {b44c0ada-07b9-4fb5-9f8b-9ff531899ec1}, !- Schedule Type Limits Name
  ,                                       !- Interpolate to Timestep
  8,                                      !- Hour 1
  0,                                      !- Minute 1
  0.4,                                    !- Value Until Time 1
  12,                                     !- Hour 2
  0,                                      !- Minute 2
  0.9,                                    !- Value Until Time 2
  13,                                     !- Hour 3
  0,                                      !- Minute 3
  0.8,                                    !- Value Until Time 3
  17,                                     !- Hour 4
  0,                                      !- Minute 4
  0.9,                                    !- Value Until Time 4
  18,                                     !- Hour 5
  0,                                      !- Minute 5
  0.8,                                    !- Value Until Time 5
  20,                                     !- Hour 6
  0,                                      !- Minute 6
  0.6,                                    !- Value Until Time 6
  22,                                     !- Hour 7
  0,                                      !- Minute 7
  0.5,                                    !- Value Until Time 7
  24,                                     !- Hour 8
  0,                                      !- Minute 8
  0.4;                                    !- Value Until Time 8

OS:Schedule:Rule,
  {db939f2e-e284-4f0a-8e5a-7f24bcb2e5fa}, !- Handle
  Medium Office Electric Equipment Schedule Saturday Rule, !- Name
  {35e1fec5-e71a-4779-b9cb-c5e7ccdb6f30}, !- Schedule Ruleset Name
  0,                                      !- Rule Order
  {7a7551aa-057a-4d34-98b0-0fabcbace966}, !- Day Schedule Name
  ,                                       !- Apply Sunday
  ,                                       !- Apply Monday