
OS:Version,
  {fd39823a-801c-4ca4-b80e-eca1e04de584}, !- Handle
  1.9.3;                                  !- Version Identifier

OS:SimulationControl,
  {e0dbb240-e050-432a-92c2-df227eae8f11}, !- Handle
  Yes,                                    !- Do Zone Sizing Calculation
  Yes,                                    !- Do System Sizing Calculation
  ,                                       !- Do Plant Sizing Calculation
  No,                                     !- Run Simulation for Sizing Periods
  Yes;                                    !- Run Simulation for Weather File Run Periods

OS:Timestep,
  {6cb1ed3f-0cb0-4299-8b55-eae5fc189109}, !- Handle
  6;                                      !- Number of Timesteps per Hour

OS:RunPeriod,
  {a0c867f9-d48e-48cd-a3a3-cfe9b8f3ad0c}, !- Handle
  Run Period 1,                           !- Name
  1,                                      !- Begin Month
  1,                                      !- Begin Day of Month
  12,                                     !- End Month
  31,                                     !- End Day of Month
  No,                                     !- Use Weather File Holidays and Special Days
  No,                                     !- Use Weather File Daylight Saving Period
  No,                                     !- Apply Weekend Holiday Rule
  Yes,                                    !- Use Weather File Rain Indicators
  Yes,                                    !- Use Weather File Snow Indicators
  1;                                      !- Number of Times Runperiod to be Repeated

OS:SurfaceConvectionAlgorithm:Inside,
  {3f0c975b-a6d3-47af-aa3a-aebe1d2eae01}, !- Handle
  TARP;                                   !- Algorithm

OS:SurfaceConvectionAlgorithm:Outside,
  {0089fa7d-28e1-40d8-9da0-0b8c70a475e1}, !- Handle
  DOE-2;                                  !- Algorithm

OS:HeatBalanceAlgorithm,
  {a01699f2-843d-40cc-9625-065820f95708}, !- Handle
  ConductionTransferFunction,             !- Algorithm
  200;                                    !- Surface Temperature Upper Limit {C}

OS:ZoneAirHeatBalanceAlgorithm,
  {e4284284-334b-431a-910e-b08f9205fd4c}, !- Handle
  ThirdOrderBackwardDifference;           !- Algorithm

OS:ConvergenceLimits,
  {743ea6a1-e6cf-4a7a-83bf-d1ad014457f1}, !- Handle
  1;                                      !- Minimum System Timestep {minutes}

OS:ShadowCalculation,
  {2b30e977-aee8-47c6-8c96-3a67d9deb47e}, !- Handle
  20,                                     !- Calculation Frequency
  15000;                                  !- Maximum Figures in Shadow Overlap Calculations

OS:Site,
  {b6cf54a2-2d69-4c8f-b09c-cc6f0330dae7}, !- Handle
  Site 1,                                 !- Name
  41.77,                                  !- Latitude {deg}
  -87.75,                                 !- Longitude {deg}
  -6,                                     !- Time Zone {hr}
  190,                                    !- Elevation {m}
  ;                                       !- Terrain

OS:Site:GroundTemperature:BuildingSurface,
  {f1a9b5e8-8ab5-4ef8-9028-a0a7cee44253}, !- Handle
  19.527,                                 !- January Ground Temperature {C}
  19.502,                                 !- February Ground Temperature {C}
  19.536,                                 !- March Ground Temperature {C}
  19.598,                                 !- April Ground Temperature {C}
  20.002,                                 !- May Ground Temperature {C}
  21.64,                                  !- June Ground Temperature {C}
  22.225,                                 !- July Ground Temperature {C}
  22.375,                                 !- August Ground Temperature {C}
  21.449,                                 !- September Ground Temperature {C}
  20.121,                                 !- October Ground Temperature {C}
  19.802,                                 !- November Ground Temperature {C}
  19.633;                                 !- December Ground Temperature {C}

OS:Site:WaterMainsTemperature,
  {ec7b8555-4b97-4d65-98be-bb20e6bec3de}, !- Handle
  Correlation,                            !- Calculation Method
  ,                                       !- Temperature Schedule Name
  9.69,                                   !- Annual Average Outdoor Air Temperature {C}
  28.1;                                   !- Maximum Difference In Monthly Average Outdoor Air Temperatures {deltaC}

OS:SizingPeriod:DesignDay,
  {76e3c7c1-c761-4826-b3c1-63aaeb41b35b}, !- Handle
  Sizing Period Design Day 1,             !- Name
  -20.6,                                  !- Maximum Dry-Bulb Temperature {C}
  0,                                      !- Daily Dry-Bulb Temperature Range {deltaC}
  -20.6,                                  !- Humidity Indicating Conditions at Maximum Dry-Bulb {BasedOnField A3}
  99063,                                  !- Barometric Pressure {Pa}
  4.9,                                    !- Wind Speed {m/s}
  270,                                    !- Wind Direction {deg}
  0,                                      !- Sky Clearness
  0,                                      !- Rain Indicator
  0,                                      !- Snow Indicator
  21,                                     !- Day of Month
  1,                                      !- Month
  WinterDesignDay,                        !- Day Type
  0,                                      !- Daylight Saving Time Indicator
  WetBulb,                                !- Humidity Indicating Type
  ,                                       !- Humidity Indicating Day Schedule Name
  DefaultMultipliers,                     !- Dry-Bulb Temperature Range Modifier Type
  ,                                       !- Dry-Bulb Temperature Range Modifier Schedule Name
  AshraeClearSky;                         !- Solar Model Indicator

OS:SizingPeriod:DesignDay,
  {c5bd6aae-8dc6-4fa8-80ab-47d3dc46b13e}, !- Handle
  Sizing Period Design Day 2,             !- Name
  33.2,                                   !- Maximum Dry-Bulb Temperature {C}
  10.7,                                   !- Daily Dry-Bulb Temperature Range {deltaC}
  23.8,                                   !- Humidity Indicating Conditions at Maximum Dry-Bulb {BasedOnField A3}
  99063,                                  !- Barometric Pressure {Pa}
  5.3,                                    !- Wind Speed {m/s}
  230,                                    !- Wind Direction {deg}
  1,                                      !- Sky Clearness
  0,                                      !- Rain Indicator
  0,                                      !- Snow Indicator
  21,                                     !- Day of Month
  7,                                      !- Month
  SummerDesignDay,                        !- Day Type
  0,                                      !- Daylight Saving Time Indicator
  WetBulb,                                !- Humidity Indicating Type
  ,                                       !- Humidity Indicating Day Schedule Name
  DefaultMultipliers,                     !- Dry-Bulb Temperature Range Modifier Type
  ,                                       !- Dry-Bulb Temperature Range Modifier Schedule Name
  AshraeClearSky;                         !- Solar Model Indicator

OS:ScheduleTypeLimits,
  {43039a3c-e8ca-461a-ba87-723e8db14e5f}, !- Handle
  Temperature,                            !- Name
  -60,                                    !- Lower Limit Value {BasedOnField A4}
  200,                                    !- Upper Limit Value {BasedOnField A4}
  CONTINUOUS,                             !- Numeric Type
  Temperature;                            !- Unit Type

OS:DefaultScheduleSet,
  {500adfce-fe51-48d3-b59b-5b75f06d1b86}, !- Handle
  Default Schedules,                      !- Name
  ,                                       !- Hours of Operation Schedule Name
  {49e8b978-f7a0-44a9-8248-fe86937497ff}, !- Number of People Schedule Name
  {7298f720-b703-468b-b3fc-ce15f7061858}, !- People Activity Level Schedule Name
  {13231a69-fc56-45b4-9887-a337f9d257b2}, !- Lighting Schedule Name
  {b073b039-dbf2-488e-ac0e-d0c1e2c3f370}, !- Electric Equipment Schedule Name
  {77794e4a-04d9-4be2-90de-0caacf9bccef}, !- Gas Equipment Schedule Name
  {522ffc5b-6787-4e00-bbb7-d42181c7cb08}, !- Hot Water Equipment Schedule Name
  {0b605d46-ffb1-48d7-a96a-9bfa6b51beae}, !- Infiltration Schedule Name
  ,                                       !- Steam Equipment Schedule Name
  ;                                       !- Other Equipment Schedule Name

OS:Schedule:Ruleset,
  {49e8b978-f7a0-44a9-8248-fe86937497ff}, !- Handle
  Medium Office Number of People Schedule, !- Name
  {f64b9876-fb95-4c4b-b4cf-400a7697846c}, !- Schedule Type Limits Name
  {edbb1d88-7d15-4714-b9c3-db38d6fa9aac}, !- Default Day Schedule Name
  {f04e2513-d11e-43f6-87ce-9cabdebb7075}; !- Summer Design Day Schedule Name

OS:Schedule:Day,
  {edbb1d88-7d15-4714-b9c3-db38d6fa9aac}, !- Handle
  Medium Office Number of People All Other Days Schedule, !- Name
  {f64b9876-fb95-4c4b-b4cf-400a7697846c}, !- Schedule Type Limits Name
  ,                                       !- Interpolate to Timestep
  24,                                     !- Hour 1
  0,                                      !- Minute 1
  0;                                      !- Value Until Time 1

OS:Schedule:Day,
  {4f2d8cd6-a3ba-41c1-8093-588cf075705b}, !- Handle
  Medium Office Number of People Summer Design Day Schedule, !- Name
  ,                                       !- Schedule Type Limits Name
  ,                                       !- Interpolate to Timestep
  6,                                      !- Hour 1
  0,                                      !- Minute 1
  0,                                      !- Value Until Time 1
  22,                                     !- Hour 2
  0,                                      !- Minute 2
  1,                                      !- Value Until Time 2
  24,                                     !- Hour 3
  0,                                      !- Minute 3
  0.05;                                   !- Value Until Time 3

OS:Schedule:Day,
  {f04e2513-d11e-43f6-87ce-9cabdebb7075}, !- Handle
  Medium Office Number of People Summer Design Day Schedule 1, !- Name
  {f64b9876-fb95-4c4b-b4cf-400a7697846c}, !- Schedule Type Limits Name
  ,                                       !- Interpolate to Timestep
  6,                                      !- Hour 1
  0,                                      !- Minute 1
  0,                                      !- Value Until Time 1
  22,                                     !- Hour 2
  0,                                      !- Minute 2
  1,                                      !- Value Until Time 2
  24,                                     !- Hour 3
  0,                                      !- Minute 3
  0.05;                                   !- Value Until Time 3

OS:Schedule:Rule,
  {d5b35458-4c35-4f2b-9ab6-a67cdd950f38}, !- Handle
  Medium Office Number of People Schedule Weekdays Rule, !- Name
  {49e8b978-f7a0-44a9-8248-fe86937497ff}, !- Schedule Ruleset Name
  1,                                      !- Rule Order
  {63532ddb-429c-44c3-a266-6d0591293cea}, !- Day Schedule Name
  ,                                       !- Apply Sunday
  Yes,                                    !- Apply Monday
  Yes,                                    !- Apply Tuesday
  Yes,                                    !- Apply Wednesday
  Yes,                                    !- Apply Thursday
  Yes;                                    !- Apply Friday

OS:Schedule:Day,
  {63532ddb-429c-44c3-a266-6d0591293cea}, !- Handle
  Medium Office Number of People Weekdays Schedule, !- Name
  {f64b9876-fb95-4c4b-b4cf-400a7697846c}, !- Schedule Type Limits Name
  ,                                       !- Interpolate to Timestep
  6,                                      !- Hour 1
  0,                                      !- Minute 1
  0,                                      !- Value Until Time 1
  7,                                      !- Hour 2
  0,                                      !- Minute 2
  0.1,                                    !- Value Until Time 2
  8,                                      !- Hour 3
  0,                                      !- Minute 3
  0.2,                                    !- Value Until Time 3
  12,                                     !- Hour 4
  0,                                      !- Minute 4
  0.95,                                   !- Value Until Time 4
  13,                                     !- Hour 5
  0,                                      !- Minute 5
  0.5,                                    !- Value Until Time 5
  17,                                     !- Hour 6
  0,                                      !- Minute 6
  0.95,                                   !- Value Until Time 6
  18,                                     !- Hour 7
  0,                                      !- Minute 7
  0.7,                                    !- Value Until Time 7
  20,                                     !- Hour 8
  0,                                      !- Minute 8
  0.4,                                    !- Value Until Time 8
  22,                                     !- Hour 9
  0,                                      !- Minute 9
  0.1,                                    !- Value Until Time 9
  24,                                     !- Hour 10
  0,                                      !- Minute 10
  0.05;                                   !- Value Until Time 10

OS:Schedule:Rule,
  {69972935-b3e0-436a-8f15-c31955266987}, !- Handle
  Medium Office Number of People Schedule Saturday Rule, !- Name
  {49e8b978-f7a0-44a9-8248-fe86937497ff}, !- Schedule Ruleset Name
  0,                                      !- Rule Order
  {cf331f1d-1e39-4eab-a9ca-74d0edd275f5}, !- Day Schedule Name
  ,                                       !- Apply Sunday
  ,                                       !- Apply Monday
  ,                                       !- Apply Tuesday
  ,                                       !- Apply Wednesday
  ,                                       !- Apply Thursday
  ,                                       !- Apply Friday
  Yes;                                    !- Apply Saturday

OS:Schedule:Day,
  {cf331f1d-1e39-4eab-a9ca-74d0edd275f5}, !- Handle
  Medium Office Number of People Saturday Schedule, !- Name
  {f64b9876-fb95-4c4b-b4cf-400a7697846c}, !- Schedule Type Limits Name
  ,                                       !- Interpolate to Timestep
  6,                                      !- Hour 1
  0,                                      !- Minute 1
  0,                                      !- Value Until Time 1
  8,                                      !- Hour 2
  0,                                      !- Minute 2
  0.1,                                    !- Value Until Time 2
  14,                                     !- Hour 3
  0,                                      !- Minute 3
  0.5,                                    !- Value Until Time 3
  17,                                     !- Hour 4
  0,                                      !- Minute 4
  0.1,                                    !- Value Until Time 4
  24,                                     !- Hour 5
  0,                                      !- Minute 5
  0;                                      !- Value Until Time 5

OS:ScheduleTypeLimits,
  {f64b9876-fb95-4c4b-b4cf-400a7697846c}, !- Handle
  Fractional,                             !- Name
  0,                                      !- Lower Limit Value {BasedOnField A4}
  1,                                      !- Upper Limit Value {BasedOnField A4}
  Continuous;                             !- Numeric Type

OS:Schedule:Ruleset,
  {7298f720-b703-468b-b3fc-ce15f7061858}, !- Handle
  Medium Office People Activity Level Schedule, !- Name
  {fd6902ba-1c6b-45b4-9be8-41a60180fcc3}, !- Schedule Type Limits Name
  {a1453da8-8e81-406d-8c32-d5c25053fc23}; !- Default Day Schedule Name

OS:Schedule:Day,
  {a1453da8-8e81-406d-8c32-d5c25053fc23}, !- Handle
  Medium Office People Activity Level All Days Schedule, !- Name
  {fd6902ba-1c6b-45b4-9be8-41a60180fcc3}, !- Schedule Type Limits Name
  ,                                       !- Interpolate to Timestep
  24,                                     !- Hour 1
  0,                                      !- Minute 1
  120;                                    !- Value Until Time 1

OS:ScheduleTypeLimits,
  {fd6902ba-1c6b-45b4-9be8-41a60180fcc3}, !- Handle
  ActivityLevel,                          !- Name
  0,                                      !- Lower Limit Value {BasedOnField A4}
  ,                                       !- Upper Limit Value {BasedOnField A4}
  Continuous,                             !- Numeric Type
  ActivityLevel;                          !- Unit Type

OS:Schedule:Ruleset,
  {13231a69-fc56-45b4-9887-a337f9d257b2}, !- Handle
  Medium Office Lighting Schedule,        !- Name
  {f64b9876-fb95-4c4b-b4cf-400a7697846c}, !- Schedule Type Limits Name
  {b1d22f27-dcc7-4910-bf77-d8023bc50ea1}, !- Default Day Schedule Name
  {f0ed2bf7-2c39-4495-bd2d-c554a426fa91}, !- Summer Design Day Schedule Name
  {cff9d538-e68e-4023-bbc7-a2067e63f21c}; !- Winter Design Day Schedule Name

OS:Schedule:Day,
  {b1d22f27-dcc7-4910-bf77-d8023bc50ea1}, !- Handle
  Medium Office Lighting All Other Days Schedule, !- Name
  {f64b9876-fb95-4c4b-b4cf-400a7697846c}, !- Schedule Type Limits Name
  ,                                       !- Interpolate to Timestep
  24,                                     !- Hour 1
  0,                                      !- Minute 1
  0.05;                                   !- Value Until Time 1

OS:Schedule:Day,
  {8ddba2cd-a277-48f5-a3c1-f2817abab640}, !- Handle
  Medium Office Lighting Summer Design Day Schedule, !- Name
  ,                                       !- Schedule Type Limits Name
  ,                                       !- Interpolate to Timestep
  6,                                      !- Hour 1
  0,                                      !- Minute 1
  1,                                      !- Value Until Time 1
  24,                                     !- Hour 2
  0,                                      !- Minute 2
  0;                                      !- Value Until Time 2

OS:Schedule:Day,
  {f0ed2bf7-2c39-4495-bd2d-c554a426fa91}, !- Handle
  Medium Office Lighting Summer Design Day Schedule 1, !- Name
  {f64b9876-fb95-4c4b-b4cf-400a7697846c}, !- Schedule Type Limits Name
  ,                                       !- Interpolate to Timestep
  6,                                      !- Hour 1
  0,                                      !- Minute 1
  1,                                      !- Value Until Time 1
  24,                                     !- Hour 2
  0,                                      !- Minute 2
  0;                                      !- Value Until Time 2

OS:Schedule:Day,
  {49dd6a61-4d68-40b2-a5b0-0ddbf9d7b283}, !- Handle
  Medium Office Lighting Winter Design Day Schedule, !- Name
  ,                                       !- Schedule Type Limits Name
  ,                                       !- Interpolate to Timestep
  24,                                     !- Hour 1
  0,                                      !- Minute 1
  0;                                      !- Value Until Time 1

OS:Schedule:Day,
  {cff9d538-e68e-4023-bbc7-a2067e63f21c}, !- Handle
  Medium Office Lighting Winter Design Day Schedule 1, !- Name
  {f64b9876-fb95-4c4b-b4cf-400a7697846c}, !- Schedule Type Limits Name
  ,                                       !- Interpolate to Timestep
  24,                                     !- Hour 1
  0,                                      !- Minute 1
  0;                                      !- Value Until Time 1

OS:Schedule:Rule,
  {e0d4387b-da12-4ed6-ad31-80fdb98304d7}, !- Handle
  Medium Office Lighting Schedule Weekdays Rule, !- Name
  {13231a69-fc56-45b4-9887-a337f9d257b2}, !- Schedule Ruleset Name
  1,                                      !- Rule Order
  {35c29a2d-66a9-4eac-8281-d3afac6c1330}, !- Day Schedule Name
  ,                                       !- Apply Sunday
  Yes,                                    !- Apply Monday
  Yes,                                    !- Apply Tuesday
  Yes,                                    !- Apply Wednesday
  Yes,                                    !- Apply Thursday
  Yes;                                    !- Apply Friday

OS:Schedule:Day,
  {35c29a2d-66a9-4eac-8281-d3afac6c1330}, !- Handle
  Medium Office Lighting Weekdays Schedule, !- Name
  {f64b9876-fb95-4c4b-b4cf-400a7697846c}, !- Schedule Type Limits Name
  ,                                       !- Interpolate to Timestep
  5,                                      !- Hour 1
  0,                                      !- Minute 1
  0.05,                                   !- Value Until Time 1
  7,                                      !- Hour 2
  0,                                      !- Minute 2
  0.1,                                    !- Value Until Time 2
  8,                                      !- Hour 3
  0,                                      !- Minute 3
  0.3,                                    !- Value Until Time 3
  17,                                     !- Hour 4
  0,                                      !- Minute 4
  0.9,                                    !- Value Until Time 4
  18,                                     !- Hour 5
  0,                                      !- Minute 5
  0.7,                                    !- Value Until Time 5
  20,                                     !- Hour 6
  0,                                      !- Minute 6
  0.5,                                    !- Value Until Time 6
  22,                                     !- Hour 7
  0,                                      !- Minute 7
  0.3,                                    !- Value Until Time 7
  23,                                     !- Hour 8
  0,                                      !- Minute 8
  0.1,                                    !- Value Until Time 8
  24,                                     !- Hour 9
  0,                                      !- Minute 9
  0.05;                                   !- Value Until Time 9

OS:Schedule:Rule,
  {92d98e71-e513-465b-b72d-05c487ea586d}, !- Handle
  Medium Office Lighting Schedule Saturday Rule, !- Name
  {13231a69-fc56-45b4-9887-a337f9d257b2}, !- Schedule Ruleset Name
  0,                                      !- Rule Order
  {3482ba22-ab0d-4b52-8b54-b2e104f303ab}, !- Day Schedule Name
  ,                                       !- Apply Sunday
  ,                                       !- Apply Monday
  ,                                       !- Apply Tuesday
  ,                                       !- Apply Wednesday
  ,                                       !- Apply Thursday
  ,                                       !- Apply Friday
  Yes;                                    !- Apply Saturday

OS:Schedule:Day,
  {3482ba22-ab0d-4b52-8b54-b2e104f303ab}, !- Handle
  Medium Office Lighting Saturday Schedule, !- Name
  {f64b9876-fb95-4c4b-b4cf-400a7697846c}, !- Schedule Type Limits Name
  ,                                       !- Interpolate to Timestep
  6,                                      !- Hour 1
  0,                                      !- Minute 1
  0.05,                                   !- Value Until Time 1
  8,                                      !- Hour 2
  0,                                      !- Minute 2
  0.1,                                    !- Value Until Time 2
  14,                                     !- Hour 3
  0,                                      !- Minute 3
  0.5,                                    !- Value Until Time 3
  17,                                     !- Hour 4
  0,                                      !- Minute 4
  0.15,                                   !- Value Until Time 4
  24,                                     !- Hour 5
  0,                                      !- Minute 5
  0.05;                                   !- Value Until Time 5

OS:Schedule:Ruleset,
  {b073b039-dbf2-488e-ac0e-d0c1e2c3f370}, !- Handle
  Medium Office Electric Equipment Schedule, !- Name
  {f64b9876-fb95-4c4b-b4cf-400a7697846c}, !- Schedule Type Limits Name
  {15728622-a3e3-4759-93f3-df2cf9c87b35}, !- Default Day Schedule Name
  {c91f2e36-8ae4-472f-8f2e-eb785e9bd360}, !- Summer Design Day Schedule Name
  {884aa17c-1e40-441b-bff3-99f28a46da73}; !- Winter Design Day Schedule Name

OS:Schedule:Day,
  {15728622-a3e3-4759-93f3-df2cf9c87b35}, !- Handle
  Medium Office Electric Equipment All Other Days Schedule, !- Name
  {f64b9876-fb95-4c4b-b4cf-400a7697846c}, !- Schedule Type Limits Name
  ,                                       !- Interpolate to Timestep
  24,                                     !- Hour 1
  0,                                      !- Minute 1
  0.3;                                    !- Value Until Time 1

OS:Schedule:Day,
  {20a956a9-231e-478f-8d16-8330fb0bc646}, !- Handle
  Medium Office Electric Equipment Summer Design Day Schedule, !- Name
  ,                                       !- Schedule Type Limits Name
  ,                                       !- Interpolate to Timestep
  6,                                      !- Hour 1
  0,                                      !- Minute 1
  1,                                      !- Value Until Time 1
  24,                                     !- Hour 2
  0,                                      !- Minute 2
  0;                                      !- Value Until Time 2

OS:Schedule:Day,
  {c91f2e36-8ae4-472f-8f2e-eb785e9bd360}, !- Handle
  Medium Office Electric Equipment Summer Design Day Schedule 1, !- Name
  {f64b9876-fb95-4c4b-b4cf-400a7697846c}, !- Schedule Type Limits Name
  ,                                       !- Interpolate to Timestep
  6,                                      !- Hour 1
  0,                                      !- Minute 1
  1,                                      !- Value Until Time 1
  24,                                     !- Hour 2
  0,                                      !- Minute 2
  0;                                      !- Value Until Time 2

OS:Schedule:Day,
  {3265da77-e19d-4ff0-a737-3f34d3021215}, !- Handle
  Medium Office Electric Equipment Winter Design Day Schedule, !- Name
  ,                                       !- Schedule Type Limits Name
  ,                                       !- Interpolate to Timestep
  24,                                     !- Hour 1
  0,                                      !- Minute 1
  0;                                      !- Value Until Time 1

OS:Schedule:Day,
  {884aa17c-1e40-441b-bff3-99f28a46da73}, !- Handle
  Medium Office Electric Equipment Winter Design Day Schedule 1, !- Name
  {f64b9876-fb95-4c4b-b4cf-400a7697846c}, !- Schedule Type Limits Name
  ,                                       !- Interpolate to Timestep
  24,                                     !- Hour 1
  0,                                      !- Minute 1
  0;                                      !- Value Until Time 1

OS:Schedule:Rule,
  {dca86eb0-7670-4ff2-824a-26e2e60c519d}, !- Handle
  Medium Office Electric Equipment Schedule Weekdays Rule, !- Name
  {b073b039-dbf2-488e-ac0e-d0c1e2c3f370}, !- Schedule Ruleset Name
  1,                                      !- Rule Order
  {16f10ab9-3f06-4d02-b716-bf5fafb7bb7f}, !- Day Schedule Name
  ,                                       !- Apply Sunday
  Yes,                                    !- Apply Monday
  Yes,                                    !- Apply Tuesday
  Yes,                                    !- Apply Wednesday
  Yes,                                    !- Apply Thursday
  Yes;                                    !- Apply Friday

OS:Schedule:Day,
  {16f10ab9-3f06-4d02-b716-bf5fafb7bb7f}, !- Handle
  Medium Office Electric Equipment Weekdays Schedule, !- Name
  {f64b9876-fb95-4c4b-b4cf-400a7697846c}, !- Schedule Type Limits Name
  ,                                       !- Interpolate to Timestep
  8,                                      !- Hour 1
  0,                                      !- Minute 1
  0.4,                                    !- Value Until Time 1
  12,                                     !- Hour 2
  0,                                      !- Minute 2
  0.9,                                    !- Value Until Time 2
  13,                                     !- Hour 3
  0,                                      !- Minute 3
  0.8,                                    !- Value Until Time 3
  17,                                     !- Hour 4
  0,                                      !- Minute 4
  0.9,                                    !- Value Until Time 4
  18,                                     !- Hour 5
  0,                                      !- Minute 5
  0.8,                                    !- Value Until Time 5
  20,                                     !- Hour 6
  0,                                      !- Minute 6
  0.6,                                    !- Value Until Time 6
  22,                                     !- Hour 7
  0,                                      !- Minute 7
  0.5,                                    !- Value Until Time 7
  24,                                     !- Hour 8
  0,                                      !- Minute 8
  0.4;                                    !- Value Until Time 8

OS:Schedule:Rule,
  {a2ce017e-4522-428a-8d54-ed68eba492ea}, !- Handle
  Medium Office Electric Equipment Schedule Saturday Rule, !- Name
  {b073b039-dbf2-488e-ac0e-d0c1e2c3f370}, !- Schedule Ruleset Name
  0,                                      !- Rule Order
  {aa91c6c6-26c4-4369-b69b-807e5bd29efe}, !- Day Schedule Name
  ,                                       !- Apply Sunday
  ,                                       !- Apply Monday