OS:Version,
  {613189e0-03fe-44aa-a831-5ca155328d8f},	!- Handle
  1.6.0;									!- Version Identifier

OS:Material,
  {84d77143-614b-4312-be09-4f69a3338ae6},	!- Handle
  กระดาษอัด,									!- Name
  Smooth,									!- Roughness
  0.012,									!- Thickness {m}
  0.086,									!- Conductivity {W/m-K}
  400,										!- Density {kg/m3}
  1380,										!- Specific Heat {J/kg-K}
  0.9,										!- Thermal Absorptance
  0.7,										!- Solar Absorptance
  0.7;										!- Visible Absorptance

OS:Material,
  {ba3371fb-343b-42cb-8d58-05bc562d366b},	!- Handle
  กระเบื้องคอนกรีต ซีแพคโมเนีย สีแดง,									!- Name
  Smooth,									!- Roughness
  0.012,									!- Thickness {m}
  0.993,									!- Conductivity {W/m-K}
  2400,										!- Density {kg/m3}
  790,										!- Specific Heat {J/kg-K}
  0.9,										!- Thermal Absorptance
  0.7,										!- Solar Absorptance
  0.7;										!- Visible Absorptance

OS:Material,
  {6ce8ad54-047f-47c3-a6ad-c5fea6909237},	!- Handle
  กระเบื้องซีเมนต์ใยหินแผ่นเรียบ,									!- Name
  Smooth,									!- Roughness
  0.012,									!- Thickness {m}
  0.397,									!- Conductivity {W/m-K}
  1700,										!- Density {kg/m3}
  1000,										!- Specific Heat {J/kg-K}
  0.9,										!- Thermal Absorptance
  0.7,										!- Solar Absorptance
  0.7;										!- Visible Absorptance

OS:Material,
  {642d8a4b-dfa4-4ec6-a670-4bc537ad2c4f},	!- Handle
  กระเบื้องซีเมนต์ใยหินแผ่นเรียบ หนา 6 มม.,									!- Name
  Smooth,									!- Roughness
  0.012,									!- Thickness {m}
  0.507,									!- Conductivity {W/m-K}
  1722,										!- Density {kg/m3}
  1000,										!- Specific Heat {J/kg-K}
  0.9,										!- Thermal Absorptance
  0.7,										!- Solar Absorptance
  0.7;										!- Visible Absorptance

OS:Material,
  {e6ba7974-5c27-4d14-8348-8a302e33ba0c},	!- Handle
  กระเบื้องซีเมนต์ใยหินแผ่นเรียบ หนา 8 มม.,									!- Name
  Smooth,									!- Roughness
  0.012,									!- Thickness {m}
  0.511,									!- Conductivity {W/m-K}
  1708,										!- Density {kg/m3}
  1000,										!- Specific Heat {J/kg-K}
  0.9,										!- Thermal Absorptance
  0.7,										!- Solar Absorptance
  0.7;										!- Visible Absorptance

OS:Material,
  {463df8a4-833b-4676-8a34-fb96d7f13bd4},	!- Handle
  กระเบื้องซีเมนต์ใยหินลอนคู่,									!- Name
  Smooth,									!- Roughness
  0.012,									!- Thickness {m}
  0.395,									!- Conductivity {W/m-K}
  2000,										!- Density {kg/m3}
  1000,										!- Specific Heat {J/kg-K}
  0.9,										!- Thermal Absorptance
  0.7,										!- Solar Absorptance
  0.7;										!- Visible Absorptance

OS:Material,
  {6985233c-9b20-46cf-b637-85e2905fdf0d},	!- Handle
  กระเบื้องซีเมนต์ใยหินลอนคู่สีเขียวเข้ม,									!- Name
  Smooth,									!- Roughness
  0.012,									!- Thickness {m}
  0.395,									!- Conductivity {W/m-K}
  2000,										!- Density {kg/m3}
  1000,										!- Specific Heat {J/kg-K}
  0.9,										!- Thermal Absorptance
  0.7,										!- Solar Absorptance
  0.7;										!- Visible Absorptance

OS:Material,
  {d45c28e2-9de8-48c1-ad82-3506bc884cc5},	!- Handle
  กระเบื้องซีเมนต์ใยหินลอนคู่สีหมากสุก,									!- Name
  Smooth,									!- Roughness
  0.012,									!- Thickness {m}
  0.382,									!- Conductivity {W/m-K}
  1800,										!- Density {kg/m3}
  1000,										!- Specific Heat {J/kg-K}
  0.9,										!- Thermal Absorptance
  0.7,										!- Solar Absorptance
  0.7;										!- Visible Absorptance

OS:Material,
  {0407b0a9-2eae-4972-9729-96486b5a43aa},	!- Handle
  กระเบื้องซีเมนต์ใยหินลอนเล็ก,									!- Name
  Smooth,									!- Roughness
  0.012,									!- Thickness {m}
  0.384,									!- Conductivity {W/m-K}
  1700,										!- Density {kg/m3}
  1000,										!- Specific Heat {J/kg-K}
  0.9,										!- Thermal Absorptance
  0.7,										!- Solar Absorptance
  0.7;										!- Visible Absorptance

OS:Material,
  {40eb9cf7-aad9-43c2-9b5e-d1e01de0ed4f},	!- Handle
  กระเบื้องซีเมนต์ใยหินลอนเล็กไม่มีสี,									!- Name
  Smooth,									!- Roughness
  0.012,									!- Thickness {m}
  0.384,									!- Conductivity {W/m-K}
  1700,										!- Density {kg/m3}
  1000,										!- Specific Heat {J/kg-K}
  0.9,										!- Thermal Absorptance
  0.7,										!- Solar Absorptance
  0.7;										!- Visible Absorptance

OS:Material,
  {fccd332d-5057-4488-b4de-f202ef2e116d},	!- Handle
  กระเบื้องซีเมนต์ใยหินลอนเล็กสีเขียว,									!- Name
  Smooth,									!- Roughness
  0.012,									!- Thickness {m}
  0.389,									!- Conductivity {W/m-K}
  2055,										!- Density {kg/m3}
  1000,										!- Specific Heat {J/kg-K}
  0.9,										!- Thermal Absorptance
  0.7,										!- Solar Absorptance
  0.7;										!- Visible Absorptance

OS:Material,
  {82e3cd2d-6019-47d3-8c0e-c7d577210d47},	!- Handle
  กระเบื้องซีเมนต์ใยหินลอนเล็กสีเหลือง,									!- Name
  Smooth,									!- Roughness
  0.012,									!- Thickness {m}
  0.239,									!- Conductivity {W/m-K}
  1800,										!- Density {kg/m3}
  1000,										!- Specific Heat {J/kg-K}
  0.9,										!- Thermal Absorptance
  0.7,										!- Solar Absorptance
  0.7;										!- Visible Absorptance

OS:Material,
  {07b5c01f-c762-4aeb-b4aa-4acc43b5b965},	!- Handle
  กระเบื้องซีเมนต์ใยหินลอนใหญ่,									!- Name
  Smooth,									!- Roughness
  0.012,									!- Thickness {m}
  0.441,									!- Conductivity {W/m-K}
  2000,										!- Density {kg/m3}
  1000,										!- Specific Heat {J/kg-K}
  0.9,										!- Thermal Absorptance
  0.7,										!- Solar Absorptance
  0.7;										!- Visible Absorptance

OS:Material,
  {02b1282f-2c9f-4cab-9a1c-8a2e94994023},	!- Handle
  กระเบื้องซีเมนต์ใยหินลอนใหญ่ไม่มีสี,									!- Name
  Smooth,									!- Roughness
  0.012,									!- Thickness {m}
  0.441,									!- Conductivity {W/m-K}
  2000,										!- Density {kg/m3}
  1000,										!- Specific Heat {J/kg-K}
  0.9,										!- Thermal Absorptance
  0.7,										!- Solar Absorptance
  0.7;										!- Visible Absorptance

OS:Material,
  {06078efe-3b31-4ae8-95ae-ebd61423e3de},	!- Handle
  กระเบื้องเซรามิค,									!- Name
  Smooth,									!- Roughness
  0.012,									!- Thickness {m}
  0.338,									!- Conductivity {W/m-K}
  2100,										!- Density {kg/m3}
  800,										!- Specific Heat {J/kg-K}
  0.9,										!- Thermal Absorptance
  0.7,										!- Solar Absorptance
  0.7;										!- Visible Absorptance

OS:Material,
  {0454b660-9580-42f9-80f6-cf561cacaaf7},	!- Handle
  กระเบื้องปูดาดฟ้ามวลเบา,									!- Name
  Smooth,									!- Roughness
  0.012,									!- Thickness {m}
  0.341,									!- Conductivity {W/m-K}
  930,										!- Density {kg/m3}
  880,										!- Specific Heat {J/kg-K}
  0.9,										!- Thermal Absorptance
  0.7,										!- Solar Absorptance
  0.7;										!- Visible Absorptance

OS:Material,
  {8e9b6203-a7e1-485e-8df2-8feaae0b2aeb},	!- Handle
  กระเบื้องปูพื้น คัมพานา,									!- Name
  Smooth,									!- Roughness
  0.012,									!- Thickness {m}
  0.368,									!- Conductivity {W/m-K}
  2065,										!- Density {kg/m3}
  800,										!- Specific Heat {J/kg-K}
  0.9,										!- Thermal Absorptance
  0.7,										!- Solar Absorptance
  0.7;										!- Visible Absorptance

OS:Material,
  {8c78765e-c5b6-4576-b3f6-78ed7a7161cf},	!- Handle
  กระเบื้องปูพื้น โซซูโก้,									!- Name
  Smooth,									!- Roughness
  0.012,									!- Thickness {m}
  0.362,									!- Conductivity {W/m-K}
  2093,										!- Density {kg/m3}
  800,										!- Specific Heat {J/kg-K}
  0.9,										!- Thermal Absorptance
  0.7,										!- Solar Absorptance
  0.7;										!- Visible Absorptance

OS:Material,
  {45d14596-d8e0-411f-8394-b5bbc48304bf},	!- Handle
  กระเบื้องยาง,									!- Name
  Smooth,									!- Roughness
  0.012,									!- Thickness {m}
  0.573,									!- Conductivity {W/m-K}
  1900,										!- Density {kg/m3}
  1260,										!- Specific Heat {J/kg-K}
  0.9,										!- Thermal Absorptance
  0.7,										!- Solar Absorptance
  0.7;										!- Visible Absorptance

OS:Material,
  {4db4c8e5-9fc8-4c94-9b3c-fc528e38bb26},	!- Handle
  กระเบื้องใยแก้วโปร่งแสงแผ่นเรียบสีขาวขุ่น,									!- Name
  Smooth,									!- Roughness
  0.012,									!- Thickness {m}
  0.137,									!- Conductivity {W/m-K}
  1325,										!- Density {kg/m3}
  1880,										!- Specific Heat {J/kg-K}
  0.9,										!- Thermal Absorptance
  0.7,										!- Solar Absorptance
  0.7;										!- Visible Absorptance

OS:Material,
  {b8b102e6-406c-49ae-bd07-4bc6cf28283e},	!- Handle
  กระเบื้องใยแก้วโปร่งแสงแผ่นเรียบสีขาวใส,									!- Name
  Smooth,									!- Roughness
  0.012,									!- Thickness {m}
  0.201,									!- Conductivity {W/m-K}
  1342,										!- Density {kg/m3}
  1880,										!- Specific Heat {J/kg-K}
  0.9,										!- Thermal Absorptance
  0.7,										!- Solar Absorptance
  0.7;										!- Visible Absorptance

OS:Material,
  {40a71ff3-5257-42a7-8bc1-41e651fe6879},	!- Handle
  กระเบื้องใยแก้วโปร่งแสงเรียบ,									!- Name
  Smooth,									!- Roughness
  0.012,									!- Thickness {m}
  0.213,									!- Conductivity {W/m-K}
  1340,										!- Density {kg/m3}
  1880,										!- Specific Heat {J/kg-K}
  0.9,										!- Thermal Absorptance
  0.7,										!- Solar Absorptance
  0.7;										!- Visible Absorptance

OS:Material,
  {38ce160d-93aa-4478-84f8-754bd77ecaff},	!- Handle
  กระเบื้องใยแก้วโปร่งแสงลอนใหญ่,									!- Name
  Smooth,									!- Roughness
  0.012,									!- Thickness {m}
  0.181,									!- Conductivity {W/m-K}
  1700,										!- Density {kg/m3}
  1880,										!- Specific Heat {J/kg-K}
  0.9,										!- Thermal Absorptance
  0.7,										!- Solar Absorptance
  0.7;										!- Visible Absorptance

OS:Material,
  {5776b779-fce8-4905-9f35-5a26dd1144ec},	!- Handle
  กระเบื้องใยแก้วลอนคู่สีขาวขุ่น,									!- Name
  Smooth,									!- Roughness
  0.012,									!- Thickness {m}
  0.202,									!- Conductivity {W/m-K}
  1500,										!- Density {kg/m3}
  1880,										!- Specific Heat {J/kg-K}
  0.9,										!- Thermal Absorptance
  0.7,										!- Solar Absorptance
  0.7;										!- Visible Absorptance

OS:Material,
  {2bea0794-f81c-4998-8ccc-e9df7fa78948},	!- Handle
  กระเบื้องลูกฟูกโปร่งแสง,									!- Name
  Smooth,									!- Roughness
  0.012,									!- Thickness {m}
  0.16,									!- Conductivity {W/m-K}
  1340,										!- Density {kg/m3}
  1880,										!- Specific Heat {J/kg-K}
  0.9,										!- Thermal Absorptance
  0.7,										!- Solar Absorptance
  0.7;										!- Visible Absorptance

OS:Material,
  {a3f2e99a-c834-40dd-8d13-81094f7f289e},	!- Handle
  กระเบื้องลูกฟูกโปร่งแสง ซีแพคโมเนีย,									!- Name
  Smooth,									!- Roughness
  0.012,									!- Thickness {m}
  0.16,									!- Conductivity {W/m-K}
  1344,										!- Density {kg/m3}
  1880,										!- Specific Heat {J/kg-K}
  0.9,										!- Thermal Absorptance
  0.7,										!- Solar Absorptance
  0.7;										!- Visible Absorptance

OS:Material,
  {afcc1cbf-4812-4142-aeb4-23da85bae147},	!- Handle
  กระเบื้องหลังคาคอนกรีต,									!- Name
  Smooth,									!- Roughness
  0.012,									!- Thickness {m}
  0.993,									!- Conductivity {W/m-K}
  2400,										!- Density {kg/m3}
  790,										!- Specific Heat {J/kg-K}
  0.9,										!- Thermal Absorptance
  0.7,										!- Solar Absorptance
  0.7;										!- Visible Absorptance

OS:Material,
  {3dbd5215-5e81-4397-8129-ad5836cb5c14},	!- Handle
  คอนกรีต,									!- Name
  Smooth,									!- Roughness
  0.012,									!- Thickness {m}
  1.442,									!- Conductivity {W/m-K}
  2400,										!- Density {kg/m3}
  920,										!- Specific Heat {J/kg-K}
  0.9,										!- Thermal Absorptance
  0.7,										!- Solar Absorptance
  0.7;										!- Visible Absorptance

OS:Material,
  {8f8c2060-dd59-4d28-a703-efc965818922},	!- Handle
  คอนกรีตบล็อกกลวง 80 มม. ไม่ฉาบ,									!- Name
  Smooth,									!- Roughness
  0.012,									!- Thickness {m}
  0.546,									!- Conductivity {W/m-K}
  2210,										!- Density {kg/m3}
  920,										!- Specific Heat {J/kg-K}
  0.9,										!- Thermal Absorptance
  0.7,										!- Solar Absorptance
  0.7;										!- Visible Absorptance

OS:Material,
  {f513bc3d-831b-400d-a8f0-233e02b2f93a},	!- Handle
  คอนกรีตมวลเบา,									!- Name
  Smooth,									!- Roughness
  0.012,									!- Thickness {m}
  0.476,									!- Conductivity {W/m-K}
  1280,										!- Density {kg/m3}
  840,										!- Specific Heat {J/kg-K}
  0.9,										!- Thermal Absorptance
  0.7,										!- Solar Absorptance
  0.7;										!- Visible Absorptance

OS:Material,
  {579ab81c-b6a2-4978-952d-a62d82cbe329},	!- Handle
  คอนกรีตมวลเบา ความหนาแน่น 1120 กก./ลบ.ม.,									!- Name
  Smooth,									!- Roughness
  0.012,									!- Thickness {m}
  0.346,									!- Conductivity {W/m-K}
  1120,										!- Density {kg/m3}
  840,										!- Specific Heat {J/kg-K}
  0.9,										!- Thermal Absorptance
  0.7,										!- Solar Absorptance
  0.7;										!- Visible Absorptance

OS:Material,
  {c2addb5f-636a-4427-8ac4-06443f30895b},	!- Handle
  คอนกรีตมวลเบา ความหนาแน่น 1280 กก./ลบ.ม.,									!- Name
  Smooth,									!- Roughness
  0.012,									!- Thickness {m}
  0.476,									!- Conductivity {W/m-K}
  1280,										!- Density {kg/m3}
  840,										!- Specific Heat {J/kg-K}
  0.9,										!- Thermal Absorptance
  0.7,										!- Solar Absorptance
  0.7;										!- Visible Absorptance

OS:Material,
  {2cf0beaa-6c79-4f2f-8eea-9861975dfab7},	!- Handle
  คอนกรีตมวลเบา ความหนาแน่น 620 กก./ลบ.ม.,									!- Name
  Smooth,									!- Roughness
  0.012,									!- Thickness {m}
  0.18,									!- Conductivity {W/m-K}
  620,										!- Density {kg/m3}
  840,										!- Specific Heat {J/kg-K}
  0.9,										!- Thermal Absorptance
  0.7,										!- Solar Absorptance
  0.7;										!- Visible Absorptance

OS:Material,
  {10094df8-54fc-494f-ae7f-adc622fbc443},	!- Handle
  คอนกรีตมวลเบา ความหนาแน่น 700 กก./ลบ.ม.,									!- Name
  Smooth,									!- Roughness
  0.012,									!- Thickness {m}
  0.21,									!- Conductivity {W/m-K}
  700,										!- Density {kg/m3}
  840,										!- Specific Heat {J/kg-K}
  0.9,										!- Thermal Absorptance
  0.7,										!- Solar Absorptance
  0.7;										!- Visible Absorptance

OS:Material,
  {b550eca9-4855-46e8-8606-b9ba36d62e21},	!- Handle
  คอนกรีตมวลเบา ความหนาแน่น 960 กก./ลบ.ม.,									!- Name
  Smooth,									!- Roughness
  0.012,									!- Thickness {m}
  0.303,									!- Conductivity {W/m-K}
  960,										!- Density {kg/m3}
  840,										!- Specific Heat {J/kg-K}
  0.9,										!- Thermal Absorptance
  0.7,										!- Solar Absorptance
  0.7;										!- Visible Absorptance

OS:Material,
  {cb571043-2a69-42d2-a618-c512083592c8},	!- Handle
  คอนกรีตสแลบ,									!- Name
  Smooth,									!- Roughness
  0.012,									!- Thickness {m}
  1.442,									!- Conductivity {W/m-K}
  2400,										!- Density {kg/m3}
  920,										!- Specific Heat {J/kg-K}
  0.9,										!- Thermal Absorptance
  0.7,										!- Solar Absorptance
  0.7;										!- Visible Absorptance

OS:Material,
  {d265851f-e5ed-44c7-b137-c52e96e61065},	!- Handle
  ฉนวนกันความร้อนใต้หลังคา ตราช้าง FSO-G-CRB-G 1625 -25mm,									!- Name
  Smooth,									!- Roughness
  0.012,									!- Thickness {m}
  0.038,									!- Conductivity {W/m-K}
  16,										!- Density {kg/m3}
  960,										!- Specific Heat {J/kg-K}
  0.9,										!- Thermal Absorptance
  0.7,										!- Solar Absorptance
  0.7;										!- Visible Absorptance

OS:Material,
  {2614d20e-6b63-416f-bdda-9292eda03a48},	!- Handle
  ฉนวนกันความร้อนใต้หลังคา ตราช้าง FSO-G-CRB-G 1650 -50mm,									!- Name
  Smooth,									!- Roughness
  0.012,									!- Thickness {m}
  0.038,									!- Conductivity {W/m-K}
  16,										!- Density {kg/m3}
  960,										!- Specific Heat {J/kg-K}
  0.9,										!- Thermal Absorptance
  0.7,										!- Solar Absorptance
  0.7;										!- Visible Absorptance

OS:Material,
  {092d7cec-b8fb-4dd3-932f-8bcd994d0fbc},	!- Handle
  ฉนวนกันความร้อนใต้หลังคา ตราช้าง FSO-G-CRB-G 2425 -25mm,									!- Name
  Smooth,									!- Roughness
  0.012,									!- Thickness {m}
  0.035,									!- Conductivity {W/m-K}
  24,										!- Density {kg/m3}
  960,										!- Specific Heat {J/kg-K}
  0.9,										!- Thermal Absorptance
  0.7,										!- Solar Absorptance
  0.7;										!- Visible Absorptance

OS:Material,
  {deaab96f-4969-465c-9a7e-8f66fd5e4abb},	!- Handle
  ฉนวนกันความร้อนใต้หลังคา ตราช้าง FSO-G-CRB-G 2450 -50mm,									!- Name
  Smooth,									!- Roughness
  0.012,									!- Thickness {m}
  0.035,									!- Conductivity {W/m-K}
  24,										!- Density {kg/m3}
  960,										!- Specific Heat {J/kg-K}
  0.9,										!- Thermal Absorptance
  0.7,										!- Solar Absorptance
  0.7;										!- Visible Absorptance

OS:Material,
  {e7bab84f-b8c7-4edf-bcb3-175b29efd19f},	!- Handle
  ฉนวนกันความร้อนใต้หลังคา ตราช้าง FSO-G-CRB-G 3225 -25mm,									!- Name
  Smooth,									!- Roughness
  0.012,									!- Thickness {m}
  0.033,									!- Conductivity {W/m-K}
  32,										!- Density {kg/m3}
  960,										!- Specific Heat {J/kg-K}
  0.9,										!- Thermal Absorptance
  0.7,										!- Solar Absorptance
  0.7;										!- Visible Absorptance

OS:Material,
  {7843bddb-75a0-491c-a4df-b293775b05cc},	!- Handle
  ฉนวนกันความร้อนใต้หลังคา ตราช้าง FSO-G-CRB-G 3250 -50mm,									!- Name
  Smooth,									!- Roughness
  0.012,									!- Thickness {m}
  0.033,									!- Conductivity {W/m-K}
  32,										!- Density {kg/m3}
  960,										!- Specific Heat {J/kg-K}
  0.9,										!- Thermal Absorptance
  0.7,										!- Solar Absorptance
  0.7;										!- Visible Absorptance

OS:Material,
  {f51e0601-ea39-4188-a552-f8ece215b961},	!- Handle
  ฉนวนกันความร้อนใต้หลังคา ตราช้าง FSO-G-CRB-G 4825 -25mm,									!- Name
  Smooth,									!- Roughness
  0.012,									!- Thickness {m}
  0.032,									!- Conductivity {W/m-K}
  48,										!- Density {kg/m3}
  960,										!- Specific Heat {J/kg-K}
  0.9,										!- Thermal Absorptance
  0.7,										!- Solar Absorptance
  0.7;										!- Visible Absorptance

OS:Material,
  {0707a83e-0aca-426d-8604-a5d7ac534750},	!- Handle
  ฉนวนกันความร้อนใต้หลังคา ตราช้าง FSO-G-CRB-G 4850 -50mm,									!- Name
  Smooth,									!- Roughness
  0.012,									!- Thickness {m}
  0.032,									!- Conductivity {W/m-K}
  48,										!- Density {kg/m3}
  960,										!- Specific Heat {J/kg-K}
  0.9,										!- Thermal Absorptance
  0.7,										!- Solar Absorptance
  0.7;										!- Visible Absorptance

OS:Material,
  {75ef6aac-6bae-4742-8873-a3954da909e2},	!- Handle
  ฉนวนกันความร้อนใต้หลังคา ตราช้าง SUPER COOL-G 1250 -50mm,									!- Name
  Smooth,									!- Roughness
  0.012,									!- Thickness {m}
  0.042,									!- Conductivity {W/m-K}
  12,										!- Density {kg/m3}
  960,										!- Specific Heat {J/kg-K}
  0.9,										!- Thermal Absorptance
  0.7,										!- Solar Absorptance
  0.7;										!- Visible Absorptance

OS:Material,
  {9140bfe1-abce-4ee3-abfb-8aa8a04a82bf},	!- Handle
  ฉนวนกันความร้อนใต้หลังคา ตราช้าง SUPER COOL-G 1275 -75mm,									!- Name
  Smooth,									!- Roughness
  0.012,									!- Thickness {m}
  0.042,									!- Conductivity {W/m-K}
  12,										!- Density {kg/m3}
  960,										!- Specific Heat {J/kg-K}
  0.9,										!- Thermal Absorptance
  0.7,										!- Solar Absorptance
  0.7;										!- Visible Absorptance

OS:Material,
  {68af6e92-c930-44da-960b-d0cdd7a4fac3},	!- Handle
  ฉนวนกันความร้อนใต้หลังคา ตราช้าง SUPER COOL-G 1625 -25mm,									!- Name
  Smooth,									!- Roughness
  0.012,									!- Thickness {m}
  0.038,									!- Conductivity {W/m-K}
  12,										!- Density {kg/m3}
  960,										!- Specific Heat {J/kg-K}
  0.9,										!- Thermal Absorptance
  0.7,										!- Solar Absorptance
  0.7;										!- Visible Absorptance

OS:Material,
  {de85fde9-9081-4efb-aa71-7385d5cb57a5},	!- Handle
  ฉนวนกันความร้อนใต้หลังคา ตราช้าง SUPER COOL-G 1650 -50mm,									!- Name
  Smooth,									!- Roughness
  0.012,									!- Thickness {m}
  0.038,									!- Conductivity {W/m-K}
  12,										!- Density {kg/m3}
  960,										!- Specific Heat {J/kg-K}
  0.9,										!- Thermal Absorptance
  0.7,										!- Solar Absorptance
  0.7;										!- Visible Absorptance

OS:Material,
  {e29ea3cb-2cde-49e8-b9d5-e3a8cbc785d6},	!- Handle
  ฉนวนกันความร้อนใต้หลังคา ตราช้าง SUPER COOL-G 2425 -25mm,									!- Name
  Smooth,									!- Roughness
  0.012,									!- Thickness {m}
  0.035,									!- Conductivity {W/m-K}
  24,										!- Density {kg/m3}
  960,										!- Specific Heat {J/kg-K}
  0.9,										!- Thermal Absorptance
  0.7,										!- Solar Absorptance
  0.7;										!- Visible Absorptance

OS:Material,
  {d9889ec2-9d3c-40b3-bbfe-82f1de9089aa},	!- Handle
  ฉนวนกันความร้อนใต้หลังคา ตราช้าง SUPER COOL-G 2450 -50mm,									!- Name
  Smooth,									!- Roughness
  0.012,									!- Thickness {m}
  0.035,									!- Conductivity {W/m-K}
  24,										!- Density {kg/m3}
  960,										!- Specific Heat {J/kg-K}
  0.9,										!- Thermal Absorptance
  0.7,										!- Solar Absorptance
  0.7;										!- Visible Absorptance

OS:Material,
  {acbad166-68a8-46a1-aa56-5f2fbcfcbc72},	!- Handle
  ฉนวนชนิดโฟมโพลีสไตรีน ความหนาแน่น 16 กก./ลบ.ม.,									!- Name
  Smooth,									!- Roughness
  0.012,									!- Thickness {m}
  0.037,									!- Conductivity {W/m-K}
  16,										!- Density {kg/m3}
  1210,										!- Specific Heat {J/kg-K}
  0.9,										!- Thermal Absorptance
  0.7,										!- Solar Absorptance
  0.7;										!- Visible Absorptance

OS:Material,
  {834e91ae-a456-40f9-9aa8-739ab732c956},	!- Handle
  ฉนวนชนิดโฟมโพลีสไตรีน ความหนาแน่น 20 กก./ลบ.ม.,									!- Name
  Smooth,									!- Roughness
  0.012,									!- Thickness {m}
  0.036,									!- Conductivity {W/m-K}
  20,										!- Density {kg/m3}
  1210,										!- Specific Heat {J/kg-K}
  0.9,										!- Thermal Absorptance
  0.7,										!- Solar Absorptance
  0.7;										!- Visible Absorptance

OS:Material,
  {bcaf0497-bae3-4ead-97f4-47fb6784ac3e},	!- Handle
  ฉนวนชนิดโฟมโพลีสไตรีน ความหนาแน่น 24 กก./ลบ.ม.,									!- Name
  Smooth,									!- Roughness
  0.012,									!- Thickness {m}
  0.035,									!- Conductivity {W/m-K}
  24,										!- Density {kg/m3}
  1210,										!- Specific Heat {J/kg-K}
  0.9,										!- Thermal Absorptance
  0.7,										!- Solar Absorptance
  0.7;										!- Visible Absorptance

OS:Material,
  {d2d939c3-271c-44a0-a7a1-bf0011acdef8},	!- Handle
  ฉนวนชนิดโฟมโพลีสไตรีน ความหนาแน่น 25 กก./ลบ.ม.,									!- Name
  Smooth,									!- Roughness
  0.012,									!- Thickness {m}
  0.035,									!- Conductivity {W/m-K}
  25,										!- Density {kg/m3}
  1210,										!- Specific Heat {J/kg-K}
  0.9,										!- Thermal Absorptance
  0.7,										!- Solar Absorptance
  0.7;										!- Visible Absorptance

OS:Material,
  {6e6994d0-3082-47e6-8e16-b4cd1a83db41},	!- Handle
  ฉนวนชนิดโฟมโพลีสไตรีน ความหนาแน่น 26 กก./ลบ.ม.,									!- Name
  Smooth,									!- Roughness
  0.012,									!- Thickness {m}
  0.035,									!- Conductivity {W/m-K}
  26,										!- Density {kg/m3}
  1210,										!- Specific Heat {J/kg-K}
  0.9,										!- Thermal Absorptance
  0.7,										!- Solar Absorptance
  0.7;										!- Visible Absorptance

OS:Material,
  {fa7a3ddf-f204-4c24-9faf-68e27174d1b1},	!- Handle
  ฉนวนชนิดโฟมโพลีสไตรีน ความหนาแน่น 27 กก./ลบ.ม.,									!- Name
  Smooth,									!- Roughness
  0.012,									!- Thickness {m}
  0.035,									!- Conductivity {W/m-K}
  27,										!- Density {kg/m3}
  1210,										!- Specific Heat {J/kg-K}
  0.9,										!- Thermal Absorptance
  0.7,										!- Solar Absorptance
  0.7;										!- Visible Absorptance

OS:Material,
  {e0412c0e-0e75-4773-a8f0-c4a16e2b251c},	!- Handle
  ฉนวนชนิดโฟมโพลีสไตรีน ความหนาแน่น 28 กก./ลบ.ม.,									!- Name
  Smooth,									!- Roughness
  0.012,									!- Thickness {m}
  0.035,									!- Conductivity {W/m-K}
  28,										!- Density {kg/m3}
  1210,										!- Specific Heat {J/kg-K}
  0.9,										!- Thermal Absorptance
  0.7,										!- Solar Absorptance
  0.7;										!- Visible Absorptance

OS:Material,
  {a97e6c42-028e-45c7-88ee-f74a7472a2ee},	!- Handle
  ฉนวนชนิดโฟมโพลีสไตรีน ความหนาแน่น 29 กก./ลบ.ม.,									!- Name
  Smooth,									!- Roughness
  0.012,									!- Thickness {m}
  0.035,									!- Conductivity {W/m-K}
  29,										!- Density {kg/m3}
  1210,										!- Specific Heat {J/kg-K}
  0.9,										!- Thermal Absorptance
  0.7,										!- Solar Absorptance
  0.7;										!- Visible Absorptance

OS:Material,
  {1b6e6cb9-158f-4e93-b883-5236a5fb401d},	!- Handle
  ฉนวนชนิดโฟมโพลีสไตรีน ความหนาแน่น 30 กก./ลบ.ม.,									!- Name
  Smooth,									!- Roughness
  0.012,									!- Thickness {m}
  0.035,									!- Conductivity {W/m-K}
  30,										!- Density {kg/m3}
  1210,										!- Specific Heat {J/kg-K}
  0.9,										!- Thermal Absorptance
  0.7,										!- Solar Absorptance
  0.7;										!- Visible Absorptance

OS:Material,
  {f23462be-e9d4-4122-b82f-44b583de54e7},	!- Handle
  ฉนวนชนิดโฟมโพลีสไตรีน ความหนาแน่น 31 กก./ลบ.ม.,									!- Name
  Smooth,									!- Roughness
  0.012,									!- Thickness {m}
  0.035,									!- Conductivity {W/m-K}
  31,										!- Density {kg/m3}
  1210,										!- Specific Heat {J/kg-K}
  0.9,										!- Thermal Absorptance
  0.7,										!- Solar Absorptance
  0.7;										!- Visible Absorptance

OS:Material,
  {970be315-d8d9-41b7-a488-70a012a0bee4},	!- Handle
  ฉนวนชนิดโฟมโพลีสไตรีน ความหนาแน่น 32 กก./ลบ.ม.,									!- Name
  Smooth,									!- Roughness
  0.012,									!- Thickness {m}
  0.035,									!- Conductivity {W/m-K}
  32,										!- Density {kg/m3}
  1210,										!- Specific Heat {J/kg-K}
  0.9,										!- Thermal Absorptance
  0.7,										!- Solar Absorptance
  0.7;										!- Visible Absorptance

OS:Material,
  {e3718c6e-3cce-4e8e-a889-967c604191d5},	!- Handle
  ฉนวนชนิดโฟมโพลีสไตรีน ความหนาแน่น 9 กก./ลบ.ม.,									!- Name
  Smooth,									!- Roughness
  0.012,									!- Thickness {m}
  0.047,									!- Conductivity {W/m-K}
  9,										!- Density {kg/m3}
  1210,										!- Specific Heat {J/kg-K}
  0.9,										!- Thermal Absorptance
  0.7,										!- Solar Absorptance
  0.7;										!- Visible Absorptance

OS:Material,
  {1a7aff5f-d7e0-44f3-b24c-12368c66cb68},	!- Handle
  ฉนวนใยแก้ว,									!- Name
  Smooth,									!- Roughness
  0.012,									!- Thickness {m}
  0.033,									!- Conductivity {W/m-K}
  32,										!- Density {kg/m3}
  960,										!- Specific Heat {J/kg-K}
  0.9,										!- Thermal Absorptance
  0.7,										!- Solar Absorptance
  0.7;										!- Visible Absorptance

OS:Material,
  {057e9411-5d21-47e6-a781-8834f1661e41},	!- Handle
  ฉนวนใยแก้ว ความหนาแน่น 10 กก./ลบ.ม.,									!- Name
  Smooth,									!- Roughness
  0.012,									!- Thickness {m}
  0.046,									!- Conductivity {W/m-K}
  10,										!- Density {kg/m3}
  960,										!- Specific Heat {J/kg-K}
  0.9,										!- Thermal Absorptance
  0.7,										!- Solar Absorptance
  0.7;										!- Visible Absorptance

OS:Material,
  {a958112e-2fa0-4c98-9b3e-f333e3f2c1ce},	!- Handle
  ฉนวนใยแก้ว ความหนาแน่น 12 กก./ลบ.ม.,									!- Name
  Smooth,									!- Roughness
  0.012,									!- Thickness {m}
  0.042,									!- Conductivity {W/m-K}
  12,										!- Density {kg/m3}
  960,										!- Specific Heat {J/kg-K}
  0.9,										!- Thermal Absorptance
  0.7,										!- Solar Absorptance
  0.7;										!- Visible Absorptance

OS:Material,
  {88e07e6c-602b-4271-ab1a-e392da7a1dac},	!- Handle
  ฉนวนใยแก้ว ความหนาแน่น 16 กก./ลบ.ม.,									!- Name
  Smooth,									!- Roughness
  0.012,									!- Thickness {m}
  0.038,									!- Conductivity {W/m-K}
  16,										!- Density {kg/m3}
  960,										!- Specific Heat {J/kg-K}
  0.9,										!- Thermal Absorptance
  0.7,										!- Solar Absorptance
  0.7;										!- Visible Absorptance

OS:Material,
  {d8d02697-c9f1-4f2b-8920-dacb5535d53d},	!- Handle
  ฉนวนใยแก้ว ความหนาแน่น 24 กก./ลบ.ม.,									!- Name
  Smooth,									!- Roughness
  0.012,									!- Thickness {m}
  0.035,									!- Conductivity {W/m-K}
  24,										!- Density {kg/m3}
  960,										!- Specific Heat {J/kg-K}
  0.9,										!- Thermal Absorptance
  0.7,										!- Solar Absorptance
  0.7;										!- Visible Absorptance

OS:Material,
  {9cf3cbba-b3a6-4e26-b6c2-de13e63287c4},	!- Handle
  ฉนวนใยแก้ว ความหนาแน่น 32 กก./ลบ.ม.,									!- Name
  Smooth,									!- Roughness
  0.012,									!- Thickness {m}
  0.033,									!- Conductivity {W/m-K}
  32,										!- Density {kg/m3}
  960,										!- Specific Heat {J/kg-K}
  0.9,										!- Thermal Absorptance
  0.7,										!- Solar Absorptance
  0.7;										!- Visible Absorptance

OS:Material,
  {066e66b9-a651-4c45-a7bd-ac44625eec68},	!- Handle
  ฉนวนใยแก้ว ความหนาแน่น 33 กก./ลบ.ม.,									!- Name
  Smooth,									!- Roughness
  0.012,									!- Thickness {m}
  0.033,									!- Conductivity {W/m-K}
  33,										!- Density {kg/m3}
  960,										!- Specific Heat {J/kg-K}
  0.9,										!- Thermal Absorptance
  0.7,										!- Solar Absorptance
  0.7;										!- Visible Absorptance

OS:Material,
  {8d6a632e-f772-4482-aeb7-cf204f6abcdf},	!- Handle
  ฉนวนใยแก้ว ความหนาแน่น 34 กก./ลบ.ม.,									!- Name
  Smooth,									!- Roughness
  0.012,									!- Thickness {m}
  0.033,									!- Conductivity {W/m-K}
  34,										!- Density {kg/m3}
  960,										!- Specific Heat {J/kg-K}
  0.9,										!- Thermal Absorptance
  0.7,										!- Solar Absorptance
  0.7;										!- Visible Absorptance

OS:Material,
  {df0ac04b-4505-46f7-a2b1-39b4c97d067a},	!- Handle
  ฉนวนใยแก้ว ความหนาแน่น 35 กก./ลบ.ม.,									!- Name
  Smooth,									!- Roughness
  0.012,									!- Thickness {m}
  0.033,									!- Conductivity {W/m-K}
  35,										!- Density {kg/m3}
  960,										!- Specific Heat {J/kg-K}
  0.9,										!- Thermal Absorptance