
OS:Version,
  {f2daa7dd-bc90-408a-bfd9-23ad5d6b00f3}, !- Handle
  1.0.3;                                  !- Version Identifier

OS:SimulationControl,
  {8cd1d572-3e6a-46c9-9876-4e367aa642fe}, !- Handle
  Yes,                                    !- Do Zone Sizing Calculation
  Yes,                                    !- Do System Sizing Calculation
  ,                                       !- Do Plant Sizing Calculation
  No,                                     !- Run Simulation for Sizing Periods
  Yes;                                    !- Run Simulation for Weather File Run Periods

OS:Timestep,
  {f7244dff-a095-4b62-9de0-28d0cc1b8473}, !- Handle
  6;                                      !- Number of Timesteps per Hour

OS:RunPeriod,
  {301c363b-8ad2-46ff-91d2-ba7b67faa5e7}, !- Handle
  Run Period 1,                           !- Name
  1,                                      !- Begin Month
  1,                                      !- Begin Day of Month
  12,                                     !- End Month
  31,                                     !- End Day of Month
  No,                                     !- Use Weather File Holidays and Special Days
  No,                                     !- Use Weather File Daylight Saving Period
  No,                                     !- Apply Weekend Holiday Rule
  Yes,                                    !- Use Weather File Rain Indicators
  Yes,                                    !- Use Weather File Snow Indicators
  1;                                      !- Number of Times Runperiod to be Repeated

OS:SurfaceConvectionAlgorithm:Inside,
  {4943f292-1afb-4312-b40e-f57790e7f9d5}, !- Handle
  TARP;                                   !- Algorithm

OS:SurfaceConvectionAlgorithm:Outside,
  {d6b4c169-1767-45ab-8fe0-52ec923dd7a2}, !- Handle
  DOE-2;                                  !- Algorithm

OS:HeatBalanceAlgorithm,
  {14ac579d-6865-49dd-a09d-f39928a52f18}, !- Handle
  ConductionTransferFunction,             !- Algorithm
  200;                                    !- Surface Temperature Upper Limit {F}

OS:ZoneAirHeatBalanceAlgorithm,
  {b68650fa-9df1-40a8-a55b-51743378f15f}, !- Handle
  AnalyticalSolution;                     !- Algorithm

OS:ConvergenceLimits,
  {de9cad90-03a6-4a1d-bb06-ad296b9b5c22}; !- Handle

OS:ShadowCalculation,
  {154aad55-b1c0-4b7f-8214-4c7bdc7a678b}, !- Handle
  7,                                      !- Calculation Frequency
  15000;                                  !- Maximum Figures in Shadow Overlap Calculations

OS:Site,
  {ba70a244-89dd-4f3e-891c-cc79eb919fd8}, !- Handle
  Site 1,                                 !- Name
  41.77,                                  !- Latitude {deg}
  -87.75,                                 !- Longitude {deg}
  -6,                                     !- Time Zone {hr}
  190,                                    !- Elevation {m}
  ;                                       !- Terrain

OS:Site:GroundTemperature:BuildingSurface,
  {96d9edae-3643-4646-9a14-166c4c180735}, !- Handle
  19.527,                                 !- January Ground Temperature {C}
  19.502,                                 !- February Ground Temperature {C}
  19.536,                                 !- March Ground Temperature {C}
  19.598,                                 !- April Ground Temperature {C}
  20.002,                                 !- May Ground Temperature {C}
  21.64,                                  !- June Ground Temperature {C}
  22.225,                                 !- July Ground Temperature {C}
  22.375,                                 !- August Ground Temperature {C}
  21.449,                                 !- September Ground Temperature {C}
  20.121,                                 !- October Ground Temperature {C}
  19.802,                                 !- November Ground Temperature {C}
  19.633;                                 !- December Ground Temperature {C}

OS:Site:WaterMainsTemperature,
  {240e911b-86cc-4ade-aa3b-85fe63900633}, !- Handle
  Correlation,                            !- Calculation Method
  ,                                       !- Temperature Schedule Name
  9.69,                                   !- Annual Average Outdoor Air Temperature {C}
  28.1;                                   !- Maximum Difference In Monthly Average Outdoor Air Temperatures {deltaC}

OS:SizingPeriod:DesignDay,
  {7202907f-7596-458f-b6f9-f604e3c85991}, !- Handle
  Sizing Period Design Day 1,             !- Name
  -20.6,                                  !- Maximum Dry-Bulb Temperature {C}
  0,                                      !- Daily Dry-Bulb Temperature Range {deltaC}
  -20.6,                                  !- Humidity Indicating Conditions at Maximum Dry-Bulb {BasedOnField A3}
  99063,                                  !- Barometric Pressure {Pa}
  4.9,                                    !- Wind Speed {m/s}
  270,                                    !- Wind Direction {deg}
  0,                                      !- Sky Clearness
  0,                                      !- Rain Indicator
  0,                                      !- Snow Indicator
  21,                                     !- Day of Month
  1,                                      !- Month
  WinterDesignDay,                        !- Day Type
  0,                                      !- Daylight Saving Time Indicator
  WetBulb,                                !- Humidity Indicating Type
  ,                                       !- Humidity Indicating Day Schedule Name
  DefaultMultipliers,                     !- Dry-Bulb Temperature Range Modifier Type
  ,                                       !- Dry-Bulb Temperature Range Modifier Schedule Name
  AshraeClearSky;                         !- Solar Model Indicator

OS:SizingPeriod:DesignDay,
  {62bff0f1-c429-4aec-b3ae-f8d3c75de517}, !- Handle
  Sizing Period Design Day 2,             !- Name
  33.2,                                   !- Maximum Dry-Bulb Temperature {C}
  10.7,                                   !- Daily Dry-Bulb Temperature Range {deltaC}
  23.8,                                   !- Humidity Indicating Conditions at Maximum Dry-Bulb {BasedOnField A3}
  99063,                                  !- Barometric Pressure {Pa}
  5.3,                                    !- Wind Speed {m/s}
  230,                                    !- Wind Direction {deg}
  1,                                      !- Sky Clearness
  0,                                      !- Rain Indicator
  0,                                      !- Snow Indicator
  21,                                     !- Day of Month
  7,                                      !- Month
  SummerDesignDay,                        !- Day Type
  0,                                      !- Daylight Saving Time Indicator
  WetBulb,                                !- Humidity Indicating Type
  ,                                       !- Humidity Indicating Day Schedule Name
  DefaultMultipliers,                     !- Dry-Bulb Temperature Range Modifier Type
  ,                                       !- Dry-Bulb Temperature Range Modifier Schedule Name
  AshraeClearSky;                         !- Solar Model Indicator

OS:ScheduleTypeLimits,
  {43368db9-885e-4417-b025-232d344141ee}, !- Handle
  Temperature,                            !- Name
  -60,                                    !- Lower Limit Value {BasedOnField A4}
  200,                                    !- Upper Limit Value {BasedOnField A4}
  CONTINUOUS,                             !- Numeric Type
  Temperature;                            !- Unit Type

OS:DefaultScheduleSet,
  {d6896234-510b-42a0-af30-6f00c2bd7e32}, !- Handle
  Default Schedules,                      !- Name
  ,                                       !- Hours of Operation Schedule Name
  {2d16c6b3-7886-42ab-801f-fb933916f041}, !- Number of People Schedule Name
  {543141f1-ca91-45f5-9278-4ea50dd0f4b5}, !- People Activity Level Schedule Name
  {c016cad9-c7c5-4616-b38b-7d360804ec69}, !- Lighting Schedule Name
  {53c46f13-8de2-4bef-bbf0-f84e0b88913f}, !- Electric Equipment Schedule Name
  {2b5fec96-ae78-43f3-b3de-6ac7210ed175}, !- Gas Equipment Schedule Name
  {c903bae5-6b5f-4373-8997-14cecbbd82e9}, !- Hot Water Equipment Schedule Name
  {f8447f94-5959-432b-8c03-c7994b0e639d}, !- Infiltration Schedule Name
  ,                                       !- Steam Equipment Schedule Name
  ;                                       !- Other Equipment Schedule Name

OS:Schedule:Ruleset,
  {2d16c6b3-7886-42ab-801f-fb933916f041}, !- Handle
  Medium Office Number of People Schedule, !- Name
  {ecb90044-6bf7-44dc-b97e-a757243e4a88}, !- Schedule Type Limits Name
  {6ca9ff9c-bfef-4467-9c1b-e58ae882fe98}, !- Default Day Schedule Name
  {6529e15f-e8f2-4a8c-9b73-128e76511d9d}; !- Summer Design Day Schedule Name

OS:Schedule:Day,
  {6ca9ff9c-bfef-4467-9c1b-e58ae882fe98}, !- Handle
  Medium Office Number of People All Other Days Schedule, !- Name
  {ecb90044-6bf7-44dc-b97e-a757243e4a88}, !- Schedule Type Limits Name
  ,                                       !- Interpolate to Timestep
  24,                                     !- Hour 1
  0,                                      !- Minute 1
  0;                                      !- Value Until Time 1

OS:Schedule:Day,
  {b938a254-e8bb-4102-902c-901937d37857}, !- Handle
  Medium Office Number of People Summer Design Day Schedule, !- Name
  ,                                       !- Schedule Type Limits Name
  ,                                       !- Interpolate to Timestep
  6,                                      !- Hour 1
  0,                                      !- Minute 1
  0,                                      !- Value Until Time 1
  22,                                     !- Hour 2
  0,                                      !- Minute 2
  1,                                      !- Value Until Time 2
  24,                                     !- Hour 3
  0,                                      !- Minute 3
  0.05;                                   !- Value Until Time 3

OS:Schedule:Day,
  {6529e15f-e8f2-4a8c-9b73-128e76511d9d}, !- Handle
  Medium Office Number of People Summer Design Day Schedule 1, !- Name
  {ecb90044-6bf7-44dc-b97e-a757243e4a88}, !- Schedule Type Limits Name
  ,                                       !- Interpolate to Timestep
  6,                                      !- Hour 1
  0,                                      !- Minute 1
  0,                                      !- Value Until Time 1
  22,                                     !- Hour 2
  0,                                      !- Minute 2
  1,                                      !- Value Until Time 2
  24,                                     !- Hour 3
  0,                                      !- Minute 3
  0.05;                                   !- Value Until Time 3

OS:Schedule:Rule,
  {d296b779-9d0f-4e49-99e8-cd7d1c432791}, !- Handle
  Medium Office Number of People Schedule Weekdays Rule, !- Name
  {2d16c6b3-7886-42ab-801f-fb933916f041}, !- Schedule Ruleset Name
  1,                                      !- Rule Order
  {ffd99b7d-c938-4c43-b451-d2bfff8b1e39}, !- Day Schedule Name
  ,                                       !- Apply Sunday
  Yes,                                    !- Apply Monday
  Yes,                                    !- Apply Tuesday
  Yes,                                    !- Apply Wednesday
  Yes,                                    !- Apply Thursday
  Yes;                                    !- Apply Friday

OS:Schedule:Day,
  {ffd99b7d-c938-4c43-b451-d2bfff8b1e39}, !- Handle
  Medium Office Number of People Weekdays Schedule, !- Name
  {ecb90044-6bf7-44dc-b97e-a757243e4a88}, !- Schedule Type Limits Name
  ,                                       !- Interpolate to Timestep
  6,                                      !- Hour 1
  0,                                      !- Minute 1
  0,                                      !- Value Until Time 1
  7,                                      !- Hour 2
  0,                                      !- Minute 2
  0.1,                                    !- Value Until Time 2
  8,                                      !- Hour 3
  0,                                      !- Minute 3
  0.2,                                    !- Value Until Time 3
  12,                                     !- Hour 4
  0,                                      !- Minute 4
  0.95,                                   !- Value Until Time 4
  13,                                     !- Hour 5
  0,                                      !- Minute 5
  0.5,                                    !- Value Until Time 5
  17,                                     !- Hour 6
  0,                                      !- Minute 6
  0.95,                                   !- Value Until Time 6
  18,                                     !- Hour 7
  0,                                      !- Minute 7
  0.7,                                    !- Value Until Time 7
  20,                                     !- Hour 8
  0,                                      !- Minute 8
  0.4,                                    !- Value Until Time 8
  22,                                     !- Hour 9
  0,                                      !- Minute 9
  0.1,                                    !- Value Until Time 9
  24,                                     !- Hour 10
  0,                                      !- Minute 10
  0.05;                                   !- Value Until Time 10

OS:Schedule:Rule,
  {667dab7b-dc25-4a83-80ea-11bd9db63e5e}, !- Handle
  Medium Office Number of People Schedule Saturday Rule, !- Name
  {2d16c6b3-7886-42ab-801f-fb933916f041}, !- Schedule Ruleset Name
  0,                                      !- Rule Order
  {c96ad308-98b1-4d61-aade-e62219ef627a}, !- Day Schedule Name
  ,                                       !- Apply Sunday
  ,                                       !- Apply Monday
  ,                                       !- Apply Tuesday
  ,                                       !- Apply Wednesday
  ,                                       !- Apply Thursday
  ,                                       !- Apply Friday
  Yes;                                    !- Apply Saturday

OS:Schedule:Day,
  {c96ad308-98b1-4d61-aade-e62219ef627a}, !- Handle
  Medium Office Number of People Saturday Schedule, !- Name
  {ecb90044-6bf7-44dc-b97e-a757243e4a88}, !- Schedule Type Limits Name
  ,                                       !- Interpolate to Timestep
  6,                                      !- Hour 1
  0,                                      !- Minute 1
  0,                                      !- Value Until Time 1
  8,                                      !- Hour 2
  0,                                      !- Minute 2
  0.1,                                    !- Value Until Time 2
  14,                                     !- Hour 3
  0,                                      !- Minute 3
  0.5,                                    !- Value Until Time 3
  17,                                     !- Hour 4
  0,                                      !- Minute 4
  0.1,                                    !- Value Until Time 4
  24,                                     !- Hour 5
  0,                                      !- Minute 5
  0;                                      !- Value Until Time 5

OS:ScheduleTypeLimits,
  {ecb90044-6bf7-44dc-b97e-a757243e4a88}, !- Handle
  Fractional,                             !- Name
  0,                                      !- Lower Limit Value {BasedOnField A4}
  1,                                      !- Upper Limit Value {BasedOnField A4}
  Continuous;                             !- Numeric Type

OS:Schedule:Ruleset,
  {543141f1-ca91-45f5-9278-4ea50dd0f4b5}, !- Handle
  Medium Office People Activity Level Schedule, !- Name
  {f837e8d2-0ef1-412e-8ec3-4c426c2fadd0}, !- Schedule Type Limits Name
  {3935e702-d68a-48ea-a03e-f8be8f544ee1}; !- Default Day Schedule Name

OS:Schedule:Day,
  {3935e702-d68a-48ea-a03e-f8be8f544ee1}, !- Handle
  Medium Office People Activity Level All Days Schedule, !- Name
  {f837e8d2-0ef1-412e-8ec3-4c426c2fadd0}, !- Schedule Type Limits Name
  ,                                       !- Interpolate to Timestep
  24,                                     !- Hour 1
  0,                                      !- Minute 1
  120;                                    !- Value Until Time 1

OS:ScheduleTypeLimits,
  {f837e8d2-0ef1-412e-8ec3-4c426c2fadd0}, !- Handle
  ActivityLevel,                          !- Name
  0,                                      !- Lower Limit Value {BasedOnField A4}
  ,                                       !- Upper Limit Value {BasedOnField A4}
  Continuous,                             !- Numeric Type
  ActivityLevel;                          !- Unit Type

OS:Schedule:Ruleset,
  {c016cad9-c7c5-4616-b38b-7d360804ec69}, !- Handle
  Medium Office Lighting Schedule,        !- Name
  {ecb90044-6bf7-44dc-b97e-a757243e4a88}, !- Schedule Type Limits Name
  {377edb6d-a3a9-4fa9-90e1-fc7150d4ed39}, !- Default Day Schedule Name
  {1deaf6fc-b4c1-4b80-9dc0-0e817d28900d}, !- Summer Design Day Schedule Name
  {234c6ae7-5af7-48f2-af6b-e40097e05c34}; !- Winter Design Day Schedule Name

OS:Schedule:Day,
  {377edb6d-a3a9-4fa9-90e1-fc7150d4ed39}, !- Handle
  Medium Office Lighting All Other Days Schedule, !- Name
  {ecb90044-6bf7-44dc-b97e-a757243e4a88}, !- Schedule Type Limits Name
  ,                                       !- Interpolate to Timestep
  24,                                     !- Hour 1
  0,                                      !- Minute 1
  0.05;                                   !- Value Until Time 1

OS:Schedule:Day,
  {c90a449e-8ac2-486a-aa3d-9da5bbd0c6c7}, !- Handle
  Medium Office Lighting Summer Design Day Schedule, !- Name
  ,                                       !- Schedule Type Limits Name
  ,                                       !- Interpolate to Timestep
  6,                                      !- Hour 1
  0,                                      !- Minute 1
  1,                                      !- Value Until Time 1
  24,                                     !- Hour 2
  0,                                      !- Minute 2
  0;                                      !- Value Until Time 2

OS:Schedule:Day,
  {1deaf6fc-b4c1-4b80-9dc0-0e817d28900d}, !- Handle
  Medium Office Lighting Summer Design Day Schedule 1, !- Name
  {ecb90044-6bf7-44dc-b97e-a757243e4a88}, !- Schedule Type Limits Name
  ,                                       !- Interpolate to Timestep
  6,                                      !- Hour 1
  0,                                      !- Minute 1
  1,                                      !- Value Until Time 1
  24,                                     !- Hour 2
  0,                                      !- Minute 2
  0;                                      !- Value Until Time 2

OS:Schedule:Day,
  {bdfb9038-4b62-40de-83bf-d745d161f461}, !- Handle
  Medium Office Lighting Winter Design Day Schedule, !- Name
  ,                                       !- Schedule Type Limits Name
  ,                                       !- Interpolate to Timestep
  24,                                     !- Hour 1
  0,                                      !- Minute 1
  0;                                      !- Value Until Time 1

OS:Schedule:Day,
  {234c6ae7-5af7-48f2-af6b-e40097e05c34}, !- Handle
  Medium Office Lighting Winter Design Day Schedule 1, !- Name
  {ecb90044-6bf7-44dc-b97e-a757243e4a88}, !- Schedule Type Limits Name
  ,                                       !- Interpolate to Timestep
  24,                                     !- Hour 1
  0,                                      !- Minute 1
  0;                                      !- Value Until Time 1

OS:Schedule:Rule,
  {d2502c77-ab43-4e83-8ccb-fb07c524a74f}, !- Handle
  Medium Office Lighting Schedule Weekdays Rule, !- Name
  {c016cad9-c7c5-4616-b38b-7d360804ec69}, !- Schedule Ruleset Name
  1,                                      !- Rule Order
  {63b3cc93-8a23-4e38-b6aa-e87be041b5a6}, !- Day Schedule Name
  ,                                       !- Apply Sunday
  Yes,                                    !- Apply Monday
  Yes,                                    !- Apply Tuesday
  Yes,                                    !- Apply Wednesday
  Yes,                                    !- Apply Thursday
  Yes;                                    !- Apply Friday

OS:Schedule:Day,
  {63b3cc93-8a23-4e38-b6aa-e87be041b5a6}, !- Handle
  Medium Office Lighting Weekdays Schedule, !- Name
  {ecb90044-6bf7-44dc-b97e-a757243e4a88}, !- Schedule Type Limits Name
  ,                                       !- Interpolate to Timestep
  5,                                      !- Hour 1
  0,                                      !- Minute 1
  0.05,                                   !- Value Until Time 1
  7,                                      !- Hour 2
  0,                                      !- Minute 2
  0.1,                                    !- Value Until Time 2
  8,                                      !- Hour 3
  0,                                      !- Minute 3
  0.3,                                    !- Value Until Time 3
  17,                                     !- Hour 4
  0,                                      !- Minute 4
  0.9,                                    !- Value Until Time 4
  18,                                     !- Hour 5
  0,                                      !- Minute 5
  0.7,                                    !- Value Until Time 5
  20,                                     !- Hour 6
  0,                                      !- Minute 6
  0.5,                                    !- Value Until Time 6
  22,                                     !- Hour 7
  0,                                      !- Minute 7
  0.3,                                    !- Value Until Time 7
  23,                                     !- Hour 8
  0,                                      !- Minute 8
  0.1,                                    !- Value Until Time 8
  24,                                     !- Hour 9
  0,                                      !- Minute 9
  0.05;                                   !- Value Until Time 9

OS:Schedule:Rule,
  {90c054ef-d3b4-4f08-b1b8-d392af09bb28}, !- Handle
  Medium Office Lighting Schedule Saturday Rule, !- Name
  {c016cad9-c7c5-4616-b38b-7d360804ec69}, !- Schedule Ruleset Name
  0,                                      !- Rule Order
  {3c9f1dd2-d01e-487b-a84a-6685bd943bc7}, !- Day Schedule Name
  ,                                       !- Apply Sunday
  ,                                       !- Apply Monday
  ,                                       !- Apply Tuesday
  ,                                       !- Apply Wednesday
  ,                                       !- Apply Thursday
  ,                                       !- Apply Friday
  Yes;                                    !- Apply Saturday

OS:Schedule:Day,
  {3c9f1dd2-d01e-487b-a84a-6685bd943bc7}, !- Handle
  Medium Office Lighting Saturday Schedule, !- Name
  {ecb90044-6bf7-44dc-b97e-a757243e4a88}, !- Schedule Type Limits Name
  ,                                       !- Interpolate to Timestep
  6,                                      !- Hour 1
  0,                                      !- Minute 1
  0.05,                                   !- Value Until Time 1
  8,                                      !- Hour 2
  0,                                      !- Minute 2
  0.1,                                    !- Value Until Time 2
  14,                                     !- Hour 3
  0,                                      !- Minute 3
  0.5,                                    !- Value Until Time 3
  17,                                     !- Hour 4
  0,                                      !- Minute 4
  0.15,                                   !- Value Until Time 4
  24,                                     !- Hour 5
  0,                                      !- Minute 5
  0.05;                                   !- Value Until Time 5

OS:Schedule:Ruleset,
  {53c46f13-8de2-4bef-bbf0-f84e0b88913f}, !- Handle
  Medium Office Electric Equipment Schedule, !- Name
  {ecb90044-6bf7-44dc-b97e-a757243e4a88}, !- Schedule Type Limits Name
  {ffa0d661-21be-47dd-90ab-954107b020f3}, !- Default Day Schedule Name
  {a64cbea4-bfec-42ba-94e6-dad4e222f7f7}, !- Summer Design Day Schedule Name
  {4d47ee73-af4f-448f-b9d8-97e9504d6770}; !- Winter Design Day Schedule Name

OS:Schedule:Day,
  {ffa0d661-21be-47dd-90ab-954107b020f3}, !- Handle
  Medium Office Electric Equipment All Other Days Schedule, !- Name
  {ecb90044-6bf7-44dc-b97e-a757243e4a88}, !- Schedule Type Limits Name
  ,                                       !- Interpolate to Timestep
  24,                                     !- Hour 1
  0,                                      !- Minute 1
  0.3;                                    !- Value Until Time 1

OS:Schedule:Day,
  {2592ae0d-3336-4e22-a10b-f2613d6408c8}, !- Handle
  Medium Office Electric Equipment Summer Design Day Schedule, !- Name
  ,                                       !- Schedule Type Limits Name
  ,                                       !- Interpolate to Timestep
  6,                                      !- Hour 1
  0,                                      !- Minute 1
  1,                                      !- Value Until Time 1
  24,                                     !- Hour 2
  0,                                      !- Minute 2
  0;                                      !- Value Until Time 2

OS:Schedule:Day,
  {a64cbea4-bfec-42ba-94e6-dad4e222f7f7}, !- Handle
  Medium Office Electric Equipment Summer Design Day Schedule 1, !- Name
  {ecb90044-6bf7-44dc-b97e-a757243e4a88}, !- Schedule Type Limits Name
  ,                                       !- Interpolate to Timestep
  6,                                      !- Hour 1
  0,                                      !- Minute 1
  1,                                      !- Value Until Time 1
  24,                                     !- Hour 2
  0,                                      !- Minute 2
  0;                                      !- Value Until Time 2

OS:Schedule:Day,
  {6524c5f2-1b31-4c33-acdf-c473b6e3b5af}, !- Handle
  Medium Office Electric Equipment Winter Design Day Schedule, !- Name
  ,                                       !- Schedule Type Limits Name
  ,                                       !- Interpolate to Timestep
  24,                                     !- Hour 1
  0,                                      !- Minute 1
  0;                                      !- Value Until Time 1

OS:Schedule:Day,
  {4d47ee73-af4f-448f-b9d8-97e9504d6770}, !- Handle
  Medium Office Electric Equipment Winter Design Day Schedule 1, !- Name
  {ecb90044-6bf7-44dc-b97e-a757243e4a88}, !- Schedule Type Limits Name
  ,                                       !- Interpolate to Timestep
  24,                                     !- Hour 1
  0,                                      !- Minute 1
  0;                                      !- Value Until Time 1

OS:Schedule:Rule,
  {9f5b2fbe-7c82-490f-b974-dbaa6d6e5b33}, !- Handle
  Medium Office Electric Equipment Schedule Weekdays Rule, !- Name
  {53c46f13-8de2-4bef-bbf0-f84e0b88913f}, !- Schedule Ruleset Name
  1,                                      !- Rule Order
  {c799a560-fada-49a1-9be3-6edc4322cb5c}, !- Day Schedule Name
  ,                                       !- Apply Sunday
  Yes,                                    !- Apply Monday
  Yes,                                    !- Apply Tuesday
  Yes,                                    !- Apply Wednesday
  Yes,                                    !- Apply Thursday
  Yes;                                    !- Apply Friday

OS:Schedule:Day,
  {c799a560-fada-49a1-9be3-6edc4322cb5c}, !- Handle
  Medium Office Electric Equipment Weekdays Schedule, !- Name
  {ecb90044-6bf7-44dc-b97e-a757243e4a88}, !- Schedule Type Limits Name
  ,                                       !- Interpolate to Timestep
  8,                                      !- Hour 1
  0,                                      !- Minute 1
  0.4,                                    !- Value Until Time 1
  12,                                     !- Hour 2
  0,                                      !- Minute 2
  0.9,                                    !- Value Until Time 2
  13,                                     !- Hour 3
  0,                                      !- Minute 3
  0.8,                                    !- Value Until Time 3
  17,                                     !- Hour 4
  0,                                      !- Minute 4
  0.9,                                    !- Value Until Time 4
  18,                                     !- Hour 5
  0,                                      !- Minute 5
  0.8,                                    !- Value Until Time 5
  20,                                     !- Hour 6
  0,                                      !- Minute 6
  0.6,                                    !- Value Until Time 6
  22,                                     !- Hour 7
  0,                                      !- Minute 7
  0.5,                                    !- Value Until Time 7
  24,                                     !- Hour 8
  0,                                      !- Minute 8
  0.4;                                    !- Value Until Time 8

OS:Schedule:Rule,
  {aa63ae1e-9c23-43c1-81e9-952892523851}, !- Handle
  Medium Office Electric Equipment Schedule Saturday Rule, !- Name
  {53c46f13-8de2-4bef-bbf0-f84e0b88913f}, !- Schedule Ruleset Name
  0,                                      !- Rule Order
  {ab5fedda-1421-4f2c-87d4-0b6ca16e36d1}, !- Day Schedule Name
  ,                                       !- Apply Sunday
  ,                                       !- Apply Monday
  ,                                       !- Apply Tuesday
  ,                                       !- Apply Wednesday