
OS:Version,
  {19d411ad-a011-465d-9ca8-756968a57371}, !- Handle
  1.5.2;                                  !- Version Identifier

OS:SimulationControl,
  {5a0a4f24-a7ec-4960-bcd9-43b0ce56bbdd}, !- Handle
  Yes,                                    !- Do Zone Sizing Calculation
  Yes,                                    !- Do System Sizing Calculation
  ,                                       !- Do Plant Sizing Calculation
  No,                                     !- Run Simulation for Sizing Periods
  Yes;                                    !- Run Simulation for Weather File Run Periods

OS:Timestep,
  {558ba5c8-5daa-4cf5-b5d6-41fd7a10f961}, !- Handle
  6;                                      !- Number of Timesteps per Hour

OS:RunPeriod,
  {9d7275b2-d9c9-4fff-9dcb-a4211185dcde}, !- Handle
  Run Period 1,                           !- Name
  1,                                      !- Begin Month
  1,                                      !- Begin Day of Month
  12,                                     !- End Month
  31,                                     !- End Day of Month
  No,                                     !- Use Weather File Holidays and Special Days
  No,                                     !- Use Weather File Daylight Saving Period
  No,                                     !- Apply Weekend Holiday Rule
  Yes,                                    !- Use Weather File Rain Indicators
  Yes,                                    !- Use Weather File Snow Indicators
  1;                                      !- Number of Times Runperiod to be Repeated

OS:SurfaceConvectionAlgorithm:Inside,
  {8b166b31-230d-4a5c-a8c4-fc7cdc6598ba}, !- Handle
  TARP;                                   !- Algorithm

OS:SurfaceConvectionAlgorithm:Outside,
  {82efdba1-5805-49aa-809d-33158a567444}, !- Handle
  DOE-2;                                  !- Algorithm

OS:HeatBalanceAlgorithm,
  {83bb90e7-0dce-4889-b575-5a13bd47e27b}, !- Handle
  ConductionTransferFunction,             !- Algorithm
  200;                                    !- Surface Temperature Upper Limit {F}

OS:ZoneAirHeatBalanceAlgorithm,
  {9b44db7c-2cc6-48c2-bdb2-bf1646a1d205}, !- Handle
  AnalyticalSolution;                     !- Algorithm

OS:ConvergenceLimits,
  {03d028da-df71-4748-8d17-d5b918a3a985}; !- Handle

OS:ShadowCalculation,
  {396be38a-28cd-4966-b1b8-97f433bff578}, !- Handle
  7,                                      !- Calculation Frequency
  15000;                                  !- Maximum Figures in Shadow Overlap Calculations

OS:Site,
  {558584fe-37a4-4457-aec7-a7a6b51939a8}, !- Handle
  Site 1,                                 !- Name
  41.77,                                  !- Latitude {deg}
  -87.75,                                 !- Longitude {deg}
  -6,                                     !- Time Zone {hr}
  190,                                    !- Elevation {m}
  ;                                       !- Terrain

OS:Site:GroundTemperature:BuildingSurface,
  {9263e436-cd46-41fb-af34-c0542d54c977}, !- Handle
  19.527,                                 !- January Ground Temperature {C}
  19.502,                                 !- February Ground Temperature {C}
  19.536,                                 !- March Ground Temperature {C}
  19.598,                                 !- April Ground Temperature {C}
  20.002,                                 !- May Ground Temperature {C}
  21.64,                                  !- June Ground Temperature {C}
  22.225,                                 !- July Ground Temperature {C}
  22.375,                                 !- August Ground Temperature {C}
  21.449,                                 !- September Ground Temperature {C}
  20.121,                                 !- October Ground Temperature {C}
  19.802,                                 !- November Ground Temperature {C}
  19.633;                                 !- December Ground Temperature {C}

OS:Site:WaterMainsTemperature,
  {513b6297-17ea-418e-aae0-94d1be68eaa0}, !- Handle
  Correlation,                            !- Calculation Method
  ,                                       !- Temperature Schedule Name
  9.69,                                   !- Annual Average Outdoor Air Temperature {C}
  28.1;                                   !- Maximum Difference In Monthly Average Outdoor Air Temperatures {deltaC}

OS:SizingPeriod:DesignDay,
  {0b00c75d-8a3c-409a-a843-33a139cc709f}, !- Handle
  Sizing Period Design Day 1,             !- Name
  -20.6,                                  !- Maximum Dry-Bulb Temperature {C}
  0,                                      !- Daily Dry-Bulb Temperature Range {deltaC}
  -20.6,                                  !- Humidity Indicating Conditions at Maximum Dry-Bulb {BasedOnField A3}
  99063,                                  !- Barometric Pressure {Pa}
  4.9,                                    !- Wind Speed {m/s}
  270,                                    !- Wind Direction {deg}
  0,                                      !- Sky Clearness
  0,                                      !- Rain Indicator
  0,                                      !- Snow Indicator
  21,                                     !- Day of Month
  1,                                      !- Month
  WinterDesignDay,                        !- Day Type
  0,                                      !- Daylight Saving Time Indicator
  WetBulb,                                !- Humidity Indicating Type
  ,                                       !- Humidity Indicating Day Schedule Name
  DefaultMultipliers,                     !- Dry-Bulb Temperature Range Modifier Type
  ,                                       !- Dry-Bulb Temperature Range Modifier Schedule Name
  AshraeClearSky;                         !- Solar Model Indicator

OS:SizingPeriod:DesignDay,
  {42631cc8-0841-4e57-9222-88b2336a843c}, !- Handle
  Sizing Period Design Day 2,             !- Name
  33.2,                                   !- Maximum Dry-Bulb Temperature {C}
  10.7,                                   !- Daily Dry-Bulb Temperature Range {deltaC}
  23.8,                                   !- Humidity Indicating Conditions at Maximum Dry-Bulb {BasedOnField A3}
  99063,                                  !- Barometric Pressure {Pa}
  5.3,                                    !- Wind Speed {m/s}
  230,                                    !- Wind Direction {deg}
  1,                                      !- Sky Clearness
  0,                                      !- Rain Indicator
  0,                                      !- Snow Indicator
  21,                                     !- Day of Month
  7,                                      !- Month
  SummerDesignDay,                        !- Day Type
  0,                                      !- Daylight Saving Time Indicator
  WetBulb,                                !- Humidity Indicating Type
  ,                                       !- Humidity Indicating Day Schedule Name
  DefaultMultipliers,                     !- Dry-Bulb Temperature Range Modifier Type
  ,                                       !- Dry-Bulb Temperature Range Modifier Schedule Name
  AshraeClearSky;                         !- Solar Model Indicator

OS:ScheduleTypeLimits,
  {170d768d-0ac9-4955-b147-953d5166ab73}, !- Handle
  Temperature,                            !- Name
  -60,                                    !- Lower Limit Value {BasedOnField A4}
  200,                                    !- Upper Limit Value {BasedOnField A4}
  CONTINUOUS,                             !- Numeric Type
  Temperature;                            !- Unit Type

OS:DefaultScheduleSet,
  {7d07c064-2a4b-4cf8-9a28-25607a0094d5}, !- Handle
  Default Schedules,                      !- Name
  ,                                       !- Hours of Operation Schedule Name
  {93c86886-0564-4bef-ab12-0928a1ca1781}, !- Number of People Schedule Name
  {8cd14779-4a3d-4c72-b40b-5160a6c8f1b0}, !- People Activity Level Schedule Name
  {3a093fdc-262d-449c-8498-67b0e8a32dd0}, !- Lighting Schedule Name
  {caa348ba-00c1-44b2-811f-af6294993d40}, !- Electric Equipment Schedule Name
  {8d23e60a-eb2a-4864-a567-e0aef155db18}, !- Gas Equipment Schedule Name
  {c44987dc-d48c-4288-85b6-2b560e4b3d7e}, !- Hot Water Equipment Schedule Name
  {c92dad61-75bb-43bc-b976-e0572018f141}, !- Infiltration Schedule Name
  ,                                       !- Steam Equipment Schedule Name
  ;                                       !- Other Equipment Schedule Name

OS:Schedule:Ruleset,
  {93c86886-0564-4bef-ab12-0928a1ca1781}, !- Handle
  Medium Office Number of People Schedule, !- Name
  {aee296e4-ffe1-4b56-9936-4f6e33011a03}, !- Schedule Type Limits Name
  {8eecb8cf-6b40-4739-bdcb-3b4dfecdf449}, !- Default Day Schedule Name
  {40ff0c6e-3f95-4ee3-babc-fd30bbd4a3be}; !- Summer Design Day Schedule Name

OS:Schedule:Day,
  {8eecb8cf-6b40-4739-bdcb-3b4dfecdf449}, !- Handle
  Medium Office Number of People All Other Days Schedule, !- Name
  {aee296e4-ffe1-4b56-9936-4f6e33011a03}, !- Schedule Type Limits Name
  ,                                       !- Interpolate to Timestep
  24,                                     !- Hour 1
  0,                                      !- Minute 1
  0;                                      !- Value Until Time 1

OS:Schedule:Day,
  {b85a2645-ed64-45fe-b165-fd261535619e}, !- Handle
  Medium Office Number of People Summer Design Day Schedule, !- Name
  ,                                       !- Schedule Type Limits Name
  ,                                       !- Interpolate to Timestep
  6,                                      !- Hour 1
  0,                                      !- Minute 1
  0,                                      !- Value Until Time 1
  22,                                     !- Hour 2
  0,                                      !- Minute 2
  1,                                      !- Value Until Time 2
  24,                                     !- Hour 3
  0,                                      !- Minute 3
  0.05;                                   !- Value Until Time 3

OS:Schedule:Day,
  {40ff0c6e-3f95-4ee3-babc-fd30bbd4a3be}, !- Handle
  Medium Office Number of People Summer Design Day Schedule 1, !- Name
  {aee296e4-ffe1-4b56-9936-4f6e33011a03}, !- Schedule Type Limits Name
  ,                                       !- Interpolate to Timestep
  6,                                      !- Hour 1
  0,                                      !- Minute 1
  0,                                      !- Value Until Time 1
  22,                                     !- Hour 2
  0,                                      !- Minute 2
  1,                                      !- Value Until Time 2
  24,                                     !- Hour 3
  0,                                      !- Minute 3
  0.05;                                   !- Value Until Time 3

OS:Schedule:Rule,
  {bce02e58-70a3-45bf-8afa-3da4b27546b8}, !- Handle
  Medium Office Number of People Schedule Weekdays Rule, !- Name
  {93c86886-0564-4bef-ab12-0928a1ca1781}, !- Schedule Ruleset Name
  1,                                      !- Rule Order
  {65047d21-e41a-4db4-8e20-cf14335a891d}, !- Day Schedule Name
  ,                                       !- Apply Sunday
  Yes,                                    !- Apply Monday
  Yes,                                    !- Apply Tuesday
  Yes,                                    !- Apply Wednesday
  Yes,                                    !- Apply Thursday
  Yes;                                    !- Apply Friday

OS:Schedule:Day,
  {65047d21-e41a-4db4-8e20-cf14335a891d}, !- Handle
  Medium Office Number of People Weekdays Schedule, !- Name
  {aee296e4-ffe1-4b56-9936-4f6e33011a03}, !- Schedule Type Limits Name
  ,                                       !- Interpolate to Timestep
  6,                                      !- Hour 1
  0,                                      !- Minute 1
  0,                                      !- Value Until Time 1
  7,                                      !- Hour 2
  0,                                      !- Minute 2
  0.1,                                    !- Value Until Time 2
  8,                                      !- Hour 3
  0,                                      !- Minute 3
  0.2,                                    !- Value Until Time 3
  12,                                     !- Hour 4
  0,                                      !- Minute 4
  0.95,                                   !- Value Until Time 4
  13,                                     !- Hour 5
  0,                                      !- Minute 5
  0.5,                                    !- Value Until Time 5
  17,                                     !- Hour 6
  0,                                      !- Minute 6
  0.95,                                   !- Value Until Time 6
  18,                                     !- Hour 7
  0,                                      !- Minute 7
  0.7,                                    !- Value Until Time 7
  20,                                     !- Hour 8
  0,                                      !- Minute 8
  0.4,                                    !- Value Until Time 8
  22,                                     !- Hour 9
  0,                                      !- Minute 9
  0.1,                                    !- Value Until Time 9
  24,                                     !- Hour 10
  0,                                      !- Minute 10
  0.05;                                   !- Value Until Time 10

OS:Schedule:Rule,
  {ef3ac392-fadc-4736-a790-9fc66a225590}, !- Handle
  Medium Office Number of People Schedule Saturday Rule, !- Name
  {93c86886-0564-4bef-ab12-0928a1ca1781}, !- Schedule Ruleset Name
  0,                                      !- Rule Order
  {1bd26c6a-fc10-45d4-af60-de6dbf4597f8}, !- Day Schedule Name
  ,                                       !- Apply Sunday
  ,                                       !- Apply Monday
  ,                                       !- Apply Tuesday
  ,                                       !- Apply Wednesday
  ,                                       !- Apply Thursday
  ,                                       !- Apply Friday
  Yes;                                    !- Apply Saturday

OS:Schedule:Day,
  {1bd26c6a-fc10-45d4-af60-de6dbf4597f8}, !- Handle
  Medium Office Number of People Saturday Schedule, !- Name
  {aee296e4-ffe1-4b56-9936-4f6e33011a03}, !- Schedule Type Limits Name
  ,                                       !- Interpolate to Timestep
  6,                                      !- Hour 1
  0,                                      !- Minute 1
  0,                                      !- Value Until Time 1
  8,                                      !- Hour 2
  0,                                      !- Minute 2
  0.1,                                    !- Value Until Time 2
  14,                                     !- Hour 3
  0,                                      !- Minute 3
  0.5,                                    !- Value Until Time 3
  17,                                     !- Hour 4
  0,                                      !- Minute 4
  0.1,                                    !- Value Until Time 4
  24,                                     !- Hour 5
  0,                                      !- Minute 5
  0;                                      !- Value Until Time 5

OS:ScheduleTypeLimits,
  {aee296e4-ffe1-4b56-9936-4f6e33011a03}, !- Handle
  Fractional,                             !- Name
  0,                                      !- Lower Limit Value {BasedOnField A4}
  1,                                      !- Upper Limit Value {BasedOnField A4}
  Continuous;                             !- Numeric Type

OS:Schedule:Ruleset,
  {8cd14779-4a3d-4c72-b40b-5160a6c8f1b0}, !- Handle
  Medium Office People Activity Level Schedule, !- Name
  {b3e9cbf3-3e9e-4f30-a0d8-fe1630a291af}, !- Schedule Type Limits Name
  {6a743ad1-6c67-47af-8c87-653dd5d29faf}; !- Default Day Schedule Name

OS:Schedule:Day,
  {6a743ad1-6c67-47af-8c87-653dd5d29faf}, !- Handle
  Medium Office People Activity Level All Days Schedule, !- Name
  {b3e9cbf3-3e9e-4f30-a0d8-fe1630a291af}, !- Schedule Type Limits Name
  ,                                       !- Interpolate to Timestep
  24,                                     !- Hour 1
  0,                                      !- Minute 1
  120;                                    !- Value Until Time 1

OS:ScheduleTypeLimits,
  {b3e9cbf3-3e9e-4f30-a0d8-fe1630a291af}, !- Handle
  ActivityLevel,                          !- Name
  0,                                      !- Lower Limit Value {BasedOnField A4}
  ,                                       !- Upper Limit Value {BasedOnField A4}
  Continuous,                             !- Numeric Type
  ActivityLevel;                          !- Unit Type

OS:Schedule:Ruleset,
  {3a093fdc-262d-449c-8498-67b0e8a32dd0}, !- Handle
  Medium Office Lighting Schedule,        !- Name
  {aee296e4-ffe1-4b56-9936-4f6e33011a03}, !- Schedule Type Limits Name
  {99f7535f-83d1-450a-88c2-04bafead87b3}, !- Default Day Schedule Name
  {867a8dcc-cfd4-4ecc-a7a1-8ac56a87bca0}, !- Summer Design Day Schedule Name
  {fa719813-1730-46de-8ef6-116e18739711}; !- Winter Design Day Schedule Name

OS:Schedule:Day,
  {99f7535f-83d1-450a-88c2-04bafead87b3}, !- Handle
  Medium Office Lighting All Other Days Schedule, !- Name
  {aee296e4-ffe1-4b56-9936-4f6e33011a03}, !- Schedule Type Limits Name
  ,                                       !- Interpolate to Timestep
  24,                                     !- Hour 1
  0,                                      !- Minute 1
  0.05;                                   !- Value Until Time 1

OS:Schedule:Day,
  {c1fd14b6-2139-495d-a0d6-0b475ab49e43}, !- Handle
  Medium Office Lighting Summer Design Day Schedule, !- Name
  ,                                       !- Schedule Type Limits Name
  ,                                       !- Interpolate to Timestep
  6,                                      !- Hour 1
  0,                                      !- Minute 1
  1,                                      !- Value Until Time 1
  24,                                     !- Hour 2
  0,                                      !- Minute 2
  0;                                      !- Value Until Time 2

OS:Schedule:Day,
  {867a8dcc-cfd4-4ecc-a7a1-8ac56a87bca0}, !- Handle
  Medium Office Lighting Summer Design Day Schedule 1, !- Name
  {aee296e4-ffe1-4b56-9936-4f6e33011a03}, !- Schedule Type Limits Name
  ,                                       !- Interpolate to Timestep
  6,                                      !- Hour 1
  0,                                      !- Minute 1
  1,                                      !- Value Until Time 1
  24,                                     !- Hour 2
  0,                                      !- Minute 2
  0;                                      !- Value Until Time 2

OS:Schedule:Day,
  {519742b4-4a70-4827-8e00-0360f6c302b6}, !- Handle
  Medium Office Lighting Winter Design Day Schedule, !- Name
  ,                                       !- Schedule Type Limits Name
  ,                                       !- Interpolate to Timestep
  24,                                     !- Hour 1
  0,                                      !- Minute 1
  0;                                      !- Value Until Time 1

OS:Schedule:Day,
  {fa719813-1730-46de-8ef6-116e18739711}, !- Handle
  Medium Office Lighting Winter Design Day Schedule 1, !- Name
  {aee296e4-ffe1-4b56-9936-4f6e33011a03}, !- Schedule Type Limits Name
  ,                                       !- Interpolate to Timestep
  24,                                     !- Hour 1
  0,                                      !- Minute 1
  0;                                      !- Value Until Time 1

OS:Schedule:Rule,
  {c98c5d1c-bdf1-4661-97ea-4d97e9983613}, !- Handle
  Medium Office Lighting Schedule Weekdays Rule, !- Name
  {3a093fdc-262d-449c-8498-67b0e8a32dd0}, !- Schedule Ruleset Name
  1,                                      !- Rule Order
  {e5868efb-e06f-4fa5-a0b7-4f4b64dcc21f}, !- Day Schedule Name
  ,                                       !- Apply Sunday
  Yes,                                    !- Apply Monday
  Yes,                                    !- Apply Tuesday
  Yes,                                    !- Apply Wednesday
  Yes,                                    !- Apply Thursday
  Yes;                                    !- Apply Friday

OS:Schedule:Day,
  {e5868efb-e06f-4fa5-a0b7-4f4b64dcc21f}, !- Handle
  Medium Office Lighting Weekdays Schedule, !- Name
  {aee296e4-ffe1-4b56-9936-4f6e33011a03}, !- Schedule Type Limits Name
  ,                                       !- Interpolate to Timestep
  5,                                      !- Hour 1
  0,                                      !- Minute 1
  0.05,                                   !- Value Until Time 1
  7,                                      !- Hour 2
  0,                                      !- Minute 2
  0.1,                                    !- Value Until Time 2
  8,                                      !- Hour 3
  0,                                      !- Minute 3
  0.3,                                    !- Value Until Time 3
  17,                                     !- Hour 4
  0,                                      !- Minute 4
  0.9,                                    !- Value Until Time 4
  18,                                     !- Hour 5
  0,                                      !- Minute 5
  0.7,                                    !- Value Until Time 5
  20,                                     !- Hour 6
  0,                                      !- Minute 6
  0.5,                                    !- Value Until Time 6
  22,                                     !- Hour 7
  0,                                      !- Minute 7
  0.3,                                    !- Value Until Time 7
  23,                                     !- Hour 8
  0,                                      !- Minute 8
  0.1,                                    !- Value Until Time 8
  24,                                     !- Hour 9
  0,                                      !- Minute 9
  0.05;                                   !- Value Until Time 9

OS:Schedule:Rule,
  {358ae51c-a5b1-4e7a-8156-b24ece3ab23c}, !- Handle
  Medium Office Lighting Schedule Saturday Rule, !- Name
  {3a093fdc-262d-449c-8498-67b0e8a32dd0}, !- Schedule Ruleset Name
  0,                                      !- Rule Order
  {2c9dfe31-2dc4-4600-b8b7-b0a5abb60733}, !- Day Schedule Name
  ,                                       !- Apply Sunday
  ,                                       !- Apply Monday
  ,                                       !- Apply Tuesday
  ,                                       !- Apply Wednesday
  ,                                       !- Apply Thursday
  ,                                       !- Apply Friday
  Yes;                                    !- Apply Saturday

OS:Schedule:Day,
  {2c9dfe31-2dc4-4600-b8b7-b0a5abb60733}, !- Handle
  Medium Office Lighting Saturday Schedule, !- Name
  {aee296e4-ffe1-4b56-9936-4f6e33011a03}, !- Schedule Type Limits Name
  ,                                       !- Interpolate to Timestep
  6,                                      !- Hour 1
  0,                                      !- Minute 1
  0.05,                                   !- Value Until Time 1
  8,                                      !- Hour 2
  0,                                      !- Minute 2
  0.1,                                    !- Value Until Time 2
  14,                                     !- Hour 3
  0,                                      !- Minute 3
  0.5,                                    !- Value Until Time 3
  17,                                     !- Hour 4
  0,                                      !- Minute 4
  0.15,                                   !- Value Until Time 4
  24,                                     !- Hour 5
  0,                                      !- Minute 5
  0.05;                                   !- Value Until Time 5

OS:Schedule:Ruleset,
  {caa348ba-00c1-44b2-811f-af6294993d40}, !- Handle
  Medium Office Electric Equipment Schedule, !- Name
  {aee296e4-ffe1-4b56-9936-4f6e33011a03}, !- Schedule Type Limits Name
  {31fdc48c-fb75-438e-a189-7d3b489957fa}, !- Default Day Schedule Name
  {e82f786a-49ed-43ca-9f7f-c99fb407476f}, !- Summer Design Day Schedule Name
  {57c504fc-8860-4ff7-8739-ffeb763b7d84}; !- Winter Design Day Schedule Name

OS:Schedule:Day,
  {31fdc48c-fb75-438e-a189-7d3b489957fa}, !- Handle
  Medium Office Electric Equipment All Other Days Schedule, !- Name
  {aee296e4-ffe1-4b56-9936-4f6e33011a03}, !- Schedule Type Limits Name
  ,                                       !- Interpolate to Timestep
  24,                                     !- Hour 1
  0,                                      !- Minute 1
  0.3;                                    !- Value Until Time 1

OS:Schedule:Day,
  {3a7b705d-49a9-4cae-ac12-24d929307d4b}, !- Handle
  Medium Office Electric Equipment Summer Design Day Schedule, !- Name
  ,                                       !- Schedule Type Limits Name
  ,                                       !- Interpolate to Timestep
  6,                                      !- Hour 1
  0,                                      !- Minute 1
  1,                                      !- Value Until Time 1
  24,                                     !- Hour 2
  0,                                      !- Minute 2
  0;                                      !- Value Until Time 2

OS:Schedule:Day,
  {e82f786a-49ed-43ca-9f7f-c99fb407476f}, !- Handle
  Medium Office Electric Equipment Summer Design Day Schedule 1, !- Name
  {aee296e4-ffe1-4b56-9936-4f6e33011a03}, !- Schedule Type Limits Name
  ,                                       !- Interpolate to Timestep
  6,                                      !- Hour 1
  0,                                      !- Minute 1
  1,                                      !- Value Until Time 1
  24,                                     !- Hour 2
  0,                                      !- Minute 2
  0;                                      !- Value Until Time 2

OS:Schedule:Day,
  {22553c15-9140-4215-a410-632bd637a379}, !- Handle
  Medium Office Electric Equipment Winter Design Day Schedule, !- Name
  ,                                       !- Schedule Type Limits Name
  ,                                       !- Interpolate to Timestep
  24,                                     !- Hour 1
  0,                                      !- Minute 1
  0;                                      !- Value Until Time 1

OS:Schedule:Day,
  {57c504fc-8860-4ff7-8739-ffeb763b7d84}, !- Handle
  Medium Office Electric Equipment Winter Design Day Schedule 1, !- Name
  {aee296e4-ffe1-4b56-9936-4f6e33011a03}, !- Schedule Type Limits Name
  ,                                       !- Interpolate to Timestep
  24,                                     !- Hour 1
  0,                                      !- Minute 1
  0;                                      !- Value Until Time 1

OS:Schedule:Rule,
  {72aaff45-ea1c-45dc-8a2d-725900d2eb06}, !- Handle
  Medium Office Electric Equipment Schedule Weekdays Rule, !- Name
  {caa348ba-00c1-44b2-811f-af6294993d40}, !- Schedule Ruleset Name
  1,                                      !- Rule Order
  {b618a739-c8d7-442c-bc95-c71d02608ba6}, !- Day Schedule Name
  ,                                       !- Apply Sunday
  Yes,                                    !- Apply Monday
  Yes,                                    !- Apply Tuesday
  Yes,                                    !- Apply Wednesday
  Yes,                                    !- Apply Thursday
  Yes;                                    !- Apply Friday

OS:Schedule:Day,
  {b618a739-c8d7-442c-bc95-c71d02608ba6}, !- Handle
  Medium Office Electric Equipment Weekdays Schedule, !- Name
  {aee296e4-ffe1-4b56-9936-4f6e33011a03}, !- Schedule Type Limits Name
  ,                                       !- Interpolate to Timestep
  8,                                      !- Hour 1
  0,                                      !- Minute 1
  0.4,                                    !- Value Until Time 1
  12,                                     !- Hour 2
  0,                                      !- Minute 2
  0.9,                                    !- Value Until Time 2
  13,                                     !- Hour 3
  0,                                      !- Minute 3
  0.8,                                    !- Value Until Time 3
  17,                                     !- Hour 4
  0,                                      !- Minute 4
  0.9,                                    !- Value Until Time 4
  18,                                     !- Hour 5
  0,                                      !- Minute 5
  0.8,                                    !- Value Until Time 5
  20,                                     !- Hour 6
  0,                                      !- Minute 6
  0.6,                                    !- Value Until Time 6
  22,                                     !- Hour 7
  0,                                      !- Minute 7
  0.5,                                    !- Value Until Time 7
  24,                                     !- Hour 8
  0,                                      !- Minute 8
  0.4;                                    !- Value Until Time 8

OS:Schedule:Rule,
  {0c866ce0-c612-48f0-89bd-8638e61913ab}, !- Handle
  Medium Office Electric Equipment Schedule Saturday Rule, !- Name
  {caa348ba-00c1-44b2-811f-af6294993d40}, !- Schedule Ruleset Name
  0,                                      !- Rule Order
  {87d0cd3f-aa4c-4ef3-a6c4-a633a4a58f7e}, !- Day Schedule Name
  ,                                       !- Apply Sunday
  ,                                       !- Apply Monday
  ,                                       !- Apply Tuesday
  ,                                       !- Apply Wednesday