
OS:Version,
  {9c3b8ef7-9e2f-4cbb-9c58-daeacf7bf317}, !- Handle
  1.2.0;                                  !- Version Identifier

OS:SimulationControl,
  {1ea6f4af-23b1-47b6-bcae-675e69c003bc}, !- Handle
  Yes,                                    !- Do Zone Sizing Calculation
  Yes,                                    !- Do System Sizing Calculation
  ,                                       !- Do Plant Sizing Calculation
  No,                                     !- Run Simulation for Sizing Periods
  Yes;                                    !- Run Simulation for Weather File Run Periods

OS:Timestep,
  {c39135c8-61ba-4546-bc59-439d3d45a7e8}, !- Handle
  6;                                      !- Number of Timesteps per Hour

OS:RunPeriod,
  {b54981cb-3f6b-467f-a718-92ad42af75d5}, !- Handle
  Run Period 1,                           !- Name
  1,                                      !- Begin Month
  1,                                      !- Begin Day of Month
  12,                                     !- End Month
  31,                                     !- End Day of Month
  No,                                     !- Use Weather File Holidays and Special Days
  No,                                     !- Use Weather File Daylight Saving Period
  No,                                     !- Apply Weekend Holiday Rule
  Yes,                                    !- Use Weather File Rain Indicators
  Yes,                                    !- Use Weather File Snow Indicators
  1;                                      !- Number of Times Runperiod to be Repeated

OS:SurfaceConvectionAlgorithm:Inside,
  {3e584d5e-b46d-4662-8c6d-71edefd9f309}, !- Handle
  TARP;                                   !- Algorithm

OS:SurfaceConvectionAlgorithm:Outside,
  {976a99b6-35f5-417e-830e-a974555fe17c}, !- Handle
  DOE-2;                                  !- Algorithm

OS:HeatBalanceAlgorithm,
  {0702648c-66eb-4ac5-b413-82e774a24c60}, !- Handle
  ConductionTransferFunction,             !- Algorithm
  200;                                    !- Surface Temperature Upper Limit {F}

OS:ZoneAirHeatBalanceAlgorithm,
  {46a2fadf-cb23-4155-aafb-a21016a55544}, !- Handle
  AnalyticalSolution;                     !- Algorithm

OS:ConvergenceLimits,
  {627fe1ff-7055-4614-b613-4c13cbb3bb6a}; !- Handle

OS:ShadowCalculation,
  {055f8920-5c55-4323-b20b-20afc3da6850}, !- Handle
  7,                                      !- Calculation Frequency
  15000;                                  !- Maximum Figures in Shadow Overlap Calculations

OS:Site,
  {5f04bd1c-e205-439f-a2be-7005199c29a9}, !- Handle
  Site 1,                                 !- Name
  41.77,                                  !- Latitude {deg}
  -87.75,                                 !- Longitude {deg}
  -6,                                     !- Time Zone {hr}
  190,                                    !- Elevation {m}
  ;                                       !- Terrain

OS:Site:GroundTemperature:BuildingSurface,
  {e0dac9f8-389a-4f3b-bc25-f0df8cbabed0}, !- Handle
  19.527,                                 !- January Ground Temperature {C}
  19.502,                                 !- February Ground Temperature {C}
  19.536,                                 !- March Ground Temperature {C}
  19.598,                                 !- April Ground Temperature {C}
  20.002,                                 !- May Ground Temperature {C}
  21.64,                                  !- June Ground Temperature {C}
  22.225,                                 !- July Ground Temperature {C}
  22.375,                                 !- August Ground Temperature {C}
  21.449,                                 !- September Ground Temperature {C}
  20.121,                                 !- October Ground Temperature {C}
  19.802,                                 !- November Ground Temperature {C}
  19.633;                                 !- December Ground Temperature {C}

OS:Site:WaterMainsTemperature,
  {62128b3e-a84c-4082-8a23-78d9f12c4cae}, !- Handle
  Correlation,                            !- Calculation Method
  ,                                       !- Temperature Schedule Name
  9.69,                                   !- Annual Average Outdoor Air Temperature {C}
  28.1;                                   !- Maximum Difference In Monthly Average Outdoor Air Temperatures {deltaC}

OS:SizingPeriod:DesignDay,
  {c91e47e5-dbf0-4013-8a69-31a558f7089a}, !- Handle
  Sizing Period Design Day 1,             !- Name
  -20.6,                                  !- Maximum Dry-Bulb Temperature {C}
  0,                                      !- Daily Dry-Bulb Temperature Range {deltaC}
  -20.6,                                  !- Humidity Indicating Conditions at Maximum Dry-Bulb {BasedOnField A3}
  99063,                                  !- Barometric Pressure {Pa}
  4.9,                                    !- Wind Speed {m/s}
  270,                                    !- Wind Direction {deg}
  0,                                      !- Sky Clearness
  0,                                      !- Rain Indicator
  0,                                      !- Snow Indicator
  21,                                     !- Day of Month
  1,                                      !- Month
  WinterDesignDay,                        !- Day Type
  0,                                      !- Daylight Saving Time Indicator
  WetBulb,                                !- Humidity Indicating Type
  ,                                       !- Humidity Indicating Day Schedule Name
  DefaultMultipliers,                     !- Dry-Bulb Temperature Range Modifier Type
  ,                                       !- Dry-Bulb Temperature Range Modifier Schedule Name
  AshraeClearSky;                         !- Solar Model Indicator

OS:SizingPeriod:DesignDay,
  {35177815-29c5-499e-8c98-158028ada9f0}, !- Handle
  Sizing Period Design Day 2,             !- Name
  33.2,                                   !- Maximum Dry-Bulb Temperature {C}
  10.7,                                   !- Daily Dry-Bulb Temperature Range {deltaC}
  23.8,                                   !- Humidity Indicating Conditions at Maximum Dry-Bulb {BasedOnField A3}
  99063,                                  !- Barometric Pressure {Pa}
  5.3,                                    !- Wind Speed {m/s}
  230,                                    !- Wind Direction {deg}
  1,                                      !- Sky Clearness
  0,                                      !- Rain Indicator
  0,                                      !- Snow Indicator
  21,                                     !- Day of Month
  7,                                      !- Month
  SummerDesignDay,                        !- Day Type
  0,                                      !- Daylight Saving Time Indicator
  WetBulb,                                !- Humidity Indicating Type
  ,                                       !- Humidity Indicating Day Schedule Name
  DefaultMultipliers,                     !- Dry-Bulb Temperature Range Modifier Type
  ,                                       !- Dry-Bulb Temperature Range Modifier Schedule Name
  AshraeClearSky;                         !- Solar Model Indicator

OS:ScheduleTypeLimits,
  {f7fa6aa5-0af0-4d8f-b8cf-79ef849c103c}, !- Handle
  Temperature,                            !- Name
  -60,                                    !- Lower Limit Value {BasedOnField A4}
  200,                                    !- Upper Limit Value {BasedOnField A4}
  CONTINUOUS,                             !- Numeric Type
  Temperature;                            !- Unit Type

OS:DefaultScheduleSet,
  {8b36719e-5811-4b2c-a531-617dabfeaba2}, !- Handle
  Default Schedules,                      !- Name
  ,                                       !- Hours of Operation Schedule Name
  {191c2ef2-a084-414b-a9d5-f7e173d7b18d}, !- Number of People Schedule Name
  {0eea6839-6d09-4d97-9c0a-5e7620021e03}, !- People Activity Level Schedule Name
  {e3819397-02d0-41d2-8299-1cc00095b0b8}, !- Lighting Schedule Name
  {de0fd284-b74f-440c-96c2-9b718512be37}, !- Electric Equipment Schedule Name
  {50fe0831-89b0-454d-979e-a9825a4e38fe}, !- Gas Equipment Schedule Name
  {bcfe8bbd-176e-49e8-a095-a084aa3101dc}, !- Hot Water Equipment Schedule Name
  {3c991252-2de7-42a6-bbf6-fabe60b471c8}, !- Infiltration Schedule Name
  ,                                       !- Steam Equipment Schedule Name
  ;                                       !- Other Equipment Schedule Name

OS:Schedule:Ruleset,
  {191c2ef2-a084-414b-a9d5-f7e173d7b18d}, !- Handle
  Medium Office Number of People Schedule, !- Name
  {8de89c94-ee2d-4a0f-b75d-73f775bc882a}, !- Schedule Type Limits Name
  {cc8a1747-22bf-4f09-81b6-eddd3543866f}, !- Default Day Schedule Name
  {a6f1c2fb-c776-471f-852a-395b03172391}; !- Summer Design Day Schedule Name

OS:Schedule:Day,
  {cc8a1747-22bf-4f09-81b6-eddd3543866f}, !- Handle
  Medium Office Number of People All Other Days Schedule, !- Name
  {8de89c94-ee2d-4a0f-b75d-73f775bc882a}, !- Schedule Type Limits Name
  ,                                       !- Interpolate to Timestep
  24,                                     !- Hour 1
  0,                                      !- Minute 1
  0;                                      !- Value Until Time 1

OS:Schedule:Day,
  {b4f8cf85-44b7-4b6b-b27f-ad6055928674}, !- Handle
  Medium Office Number of People Summer Design Day Schedule, !- Name
  ,                                       !- Schedule Type Limits Name
  ,                                       !- Interpolate to Timestep
  6,                                      !- Hour 1
  0,                                      !- Minute 1
  0,                                      !- Value Until Time 1
  22,                                     !- Hour 2
  0,                                      !- Minute 2
  1,                                      !- Value Until Time 2
  24,                                     !- Hour 3
  0,                                      !- Minute 3
  0.05;                                   !- Value Until Time 3

OS:Schedule:Day,
  {a6f1c2fb-c776-471f-852a-395b03172391}, !- Handle
  Medium Office Number of People Summer Design Day Schedule 1, !- Name
  {8de89c94-ee2d-4a0f-b75d-73f775bc882a}, !- Schedule Type Limits Name
  ,                                       !- Interpolate to Timestep
  6,                                      !- Hour 1
  0,                                      !- Minute 1
  0,                                      !- Value Until Time 1
  22,                                     !- Hour 2
  0,                                      !- Minute 2
  1,                                      !- Value Until Time 2
  24,                                     !- Hour 3
  0,                                      !- Minute 3
  0.05;                                   !- Value Until Time 3

OS:Schedule:Rule,
  {a44cd873-a92c-4bb2-885d-7e990086a911}, !- Handle
  Medium Office Number of People Schedule Weekdays Rule, !- Name
  {191c2ef2-a084-414b-a9d5-f7e173d7b18d}, !- Schedule Ruleset Name
  1,                                      !- Rule Order
  {df222825-930f-45f9-8d3c-e0822fadc9b9}, !- Day Schedule Name
  ,                                       !- Apply Sunday
  Yes,                                    !- Apply Monday
  Yes,                                    !- Apply Tuesday
  Yes,                                    !- Apply Wednesday
  Yes,                                    !- Apply Thursday
  Yes;                                    !- Apply Friday

OS:Schedule:Day,
  {df222825-930f-45f9-8d3c-e0822fadc9b9}, !- Handle
  Medium Office Number of People Weekdays Schedule, !- Name
  {8de89c94-ee2d-4a0f-b75d-73f775bc882a}, !- Schedule Type Limits Name
  ,                                       !- Interpolate to Timestep
  6,                                      !- Hour 1
  0,                                      !- Minute 1
  0,                                      !- Value Until Time 1
  7,                                      !- Hour 2
  0,                                      !- Minute 2
  0.1,                                    !- Value Until Time 2
  8,                                      !- Hour 3
  0,                                      !- Minute 3
  0.2,                                    !- Value Until Time 3
  12,                                     !- Hour 4
  0,                                      !- Minute 4
  0.95,                                   !- Value Until Time 4
  13,                                     !- Hour 5
  0,                                      !- Minute 5
  0.5,                                    !- Value Until Time 5
  17,                                     !- Hour 6
  0,                                      !- Minute 6
  0.95,                                   !- Value Until Time 6
  18,                                     !- Hour 7
  0,                                      !- Minute 7
  0.7,                                    !- Value Until Time 7
  20,                                     !- Hour 8
  0,                                      !- Minute 8
  0.4,                                    !- Value Until Time 8
  22,                                     !- Hour 9
  0,                                      !- Minute 9
  0.1,                                    !- Value Until Time 9
  24,                                     !- Hour 10
  0,                                      !- Minute 10
  0.05;                                   !- Value Until Time 10

OS:Schedule:Rule,
  {9fb3af18-9b5b-4b48-95ef-b861b02d94fe}, !- Handle
  Medium Office Number of People Schedule Saturday Rule, !- Name
  {191c2ef2-a084-414b-a9d5-f7e173d7b18d}, !- Schedule Ruleset Name
  0,                                      !- Rule Order
  {b69e0714-3539-4e84-999e-9a8262e80f94}, !- Day Schedule Name
  ,                                       !- Apply Sunday
  ,                                       !- Apply Monday
  ,                                       !- Apply Tuesday
  ,                                       !- Apply Wednesday
  ,                                       !- Apply Thursday
  ,                                       !- Apply Friday
  Yes;                                    !- Apply Saturday

OS:Schedule:Day,
  {b69e0714-3539-4e84-999e-9a8262e80f94}, !- Handle
  Medium Office Number of People Saturday Schedule, !- Name
  {8de89c94-ee2d-4a0f-b75d-73f775bc882a}, !- Schedule Type Limits Name
  ,                                       !- Interpolate to Timestep
  6,                                      !- Hour 1
  0,                                      !- Minute 1
  0,                                      !- Value Until Time 1
  8,                                      !- Hour 2
  0,                                      !- Minute 2
  0.1,                                    !- Value Until Time 2
  14,                                     !- Hour 3
  0,                                      !- Minute 3
  0.5,                                    !- Value Until Time 3
  17,                                     !- Hour 4
  0,                                      !- Minute 4
  0.1,                                    !- Value Until Time 4
  24,                                     !- Hour 5
  0,                                      !- Minute 5
  0;                                      !- Value Until Time 5

OS:ScheduleTypeLimits,
  {8de89c94-ee2d-4a0f-b75d-73f775bc882a}, !- Handle
  Fractional,                             !- Name
  0,                                      !- Lower Limit Value {BasedOnField A4}
  1,                                      !- Upper Limit Value {BasedOnField A4}
  Continuous;                             !- Numeric Type

OS:Schedule:Ruleset,
  {0eea6839-6d09-4d97-9c0a-5e7620021e03}, !- Handle
  Medium Office People Activity Level Schedule, !- Name
  {7137f7b5-5853-483f-afde-5de1735b49f3}, !- Schedule Type Limits Name
  {deeb517e-bdfa-444f-bf14-aeb8142b86e6}; !- Default Day Schedule Name

OS:Schedule:Day,
  {deeb517e-bdfa-444f-bf14-aeb8142b86e6}, !- Handle
  Medium Office People Activity Level All Days Schedule, !- Name
  {7137f7b5-5853-483f-afde-5de1735b49f3}, !- Schedule Type Limits Name
  ,                                       !- Interpolate to Timestep
  24,                                     !- Hour 1
  0,                                      !- Minute 1
  120;                                    !- Value Until Time 1

OS:ScheduleTypeLimits,
  {7137f7b5-5853-483f-afde-5de1735b49f3}, !- Handle
  ActivityLevel,                          !- Name
  0,                                      !- Lower Limit Value {BasedOnField A4}
  ,                                       !- Upper Limit Value {BasedOnField A4}
  Continuous,                             !- Numeric Type
  ActivityLevel;                          !- Unit Type

OS:Schedule:Ruleset,
  {e3819397-02d0-41d2-8299-1cc00095b0b8}, !- Handle
  Medium Office Lighting Schedule,        !- Name
  {8de89c94-ee2d-4a0f-b75d-73f775bc882a}, !- Schedule Type Limits Name
  {3b9cca92-74d3-49f2-b318-a2408c2e0fa2}, !- Default Day Schedule Name
  {4e0b2a16-0338-431b-89aa-309ed41dbd59}, !- Summer Design Day Schedule Name
  {1f30cd01-9154-420b-ab49-f6fabfb14a46}; !- Winter Design Day Schedule Name

OS:Schedule:Day,
  {3b9cca92-74d3-49f2-b318-a2408c2e0fa2}, !- Handle
  Medium Office Lighting All Other Days Schedule, !- Name
  {8de89c94-ee2d-4a0f-b75d-73f775bc882a}, !- Schedule Type Limits Name
  ,                                       !- Interpolate to Timestep
  24,                                     !- Hour 1
  0,                                      !- Minute 1
  0.05;                                   !- Value Until Time 1

OS:Schedule:Day,
  {2052fc5d-bbb9-45d2-8bcb-243e955517a8}, !- Handle
  Medium Office Lighting Summer Design Day Schedule, !- Name
  ,                                       !- Schedule Type Limits Name
  ,                                       !- Interpolate to Timestep
  6,                                      !- Hour 1
  0,                                      !- Minute 1
  1,                                      !- Value Until Time 1
  24,                                     !- Hour 2
  0,                                      !- Minute 2
  0;                                      !- Value Until Time 2

OS:Schedule:Day,
  {4e0b2a16-0338-431b-89aa-309ed41dbd59}, !- Handle
  Medium Office Lighting Summer Design Day Schedule 1, !- Name
  {8de89c94-ee2d-4a0f-b75d-73f775bc882a}, !- Schedule Type Limits Name
  ,                                       !- Interpolate to Timestep
  6,                                      !- Hour 1
  0,                                      !- Minute 1
  1,                                      !- Value Until Time 1
  24,                                     !- Hour 2
  0,                                      !- Minute 2
  0;                                      !- Value Until Time 2

OS:Schedule:Day,
  {4e8364f0-1f3f-49f8-879e-9e9bf3cd69ae}, !- Handle
  Medium Office Lighting Winter Design Day Schedule, !- Name
  ,                                       !- Schedule Type Limits Name
  ,                                       !- Interpolate to Timestep
  24,                                     !- Hour 1
  0,                                      !- Minute 1
  0;                                      !- Value Until Time 1

OS:Schedule:Day,
  {1f30cd01-9154-420b-ab49-f6fabfb14a46}, !- Handle
  Medium Office Lighting Winter Design Day Schedule 1, !- Name
  {8de89c94-ee2d-4a0f-b75d-73f775bc882a}, !- Schedule Type Limits Name
  ,                                       !- Interpolate to Timestep
  24,                                     !- Hour 1
  0,                                      !- Minute 1
  0;                                      !- Value Until Time 1

OS:Schedule:Rule,
  {6f8b7663-ab2e-44df-b2e8-9e8f4575df6e}, !- Handle
  Medium Office Lighting Schedule Weekdays Rule, !- Name
  {e3819397-02d0-41d2-8299-1cc00095b0b8}, !- Schedule Ruleset Name
  1,                                      !- Rule Order
  {d36156c8-38e6-49bf-a7fb-f99eb6ca5294}, !- Day Schedule Name
  ,                                       !- Apply Sunday
  Yes,                                    !- Apply Monday
  Yes,                                    !- Apply Tuesday
  Yes,                                    !- Apply Wednesday
  Yes,                                    !- Apply Thursday
  Yes;                                    !- Apply Friday

OS:Schedule:Day,
  {d36156c8-38e6-49bf-a7fb-f99eb6ca5294}, !- Handle
  Medium Office Lighting Weekdays Schedule, !- Name
  {8de89c94-ee2d-4a0f-b75d-73f775bc882a}, !- Schedule Type Limits Name
  ,                                       !- Interpolate to Timestep
  5,                                      !- Hour 1
  0,                                      !- Minute 1
  0.05,                                   !- Value Until Time 1
  7,                                      !- Hour 2
  0,                                      !- Minute 2
  0.1,                                    !- Value Until Time 2
  8,                                      !- Hour 3
  0,                                      !- Minute 3
  0.3,                                    !- Value Until Time 3
  17,                                     !- Hour 4
  0,                                      !- Minute 4
  0.9,                                    !- Value Until Time 4
  18,                                     !- Hour 5
  0,                                      !- Minute 5
  0.7,                                    !- Value Until Time 5
  20,                                     !- Hour 6
  0,                                      !- Minute 6
  0.5,                                    !- Value Until Time 6
  22,                                     !- Hour 7
  0,                                      !- Minute 7
  0.3,                                    !- Value Until Time 7
  23,                                     !- Hour 8
  0,                                      !- Minute 8
  0.1,                                    !- Value Until Time 8
  24,                                     !- Hour 9
  0,                                      !- Minute 9
  0.05;                                   !- Value Until Time 9

OS:Schedule:Rule,
  {59b479e1-32b8-4218-b80a-f650f3ba0eaa}, !- Handle
  Medium Office Lighting Schedule Saturday Rule, !- Name
  {e3819397-02d0-41d2-8299-1cc00095b0b8}, !- Schedule Ruleset Name
  0,                                      !- Rule Order
  {0313f382-e6ac-4983-b58a-da8237a78a83}, !- Day Schedule Name
  ,                                       !- Apply Sunday
  ,                                       !- Apply Monday
  ,                                       !- Apply Tuesday
  ,                                       !- Apply Wednesday
  ,                                       !- Apply Thursday
  ,                                       !- Apply Friday
  Yes;                                    !- Apply Saturday

OS:Schedule:Day,
  {0313f382-e6ac-4983-b58a-da8237a78a83}, !- Handle
  Medium Office Lighting Saturday Schedule, !- Name
  {8de89c94-ee2d-4a0f-b75d-73f775bc882a}, !- Schedule Type Limits Name
  ,                                       !- Interpolate to Timestep
  6,                                      !- Hour 1
  0,                                      !- Minute 1
  0.05,                                   !- Value Until Time 1
  8,                                      !- Hour 2
  0,                                      !- Minute 2
  0.1,                                    !- Value Until Time 2
  14,                                     !- Hour 3
  0,                                      !- Minute 3
  0.5,                                    !- Value Until Time 3
  17,                                     !- Hour 4
  0,                                      !- Minute 4
  0.15,                                   !- Value Until Time 4
  24,                                     !- Hour 5
  0,                                      !- Minute 5
  0.05;                                   !- Value Until Time 5

OS:Schedule:Ruleset,
  {de0fd284-b74f-440c-96c2-9b718512be37}, !- Handle
  Medium Office Electric Equipment Schedule, !- Name
  {8de89c94-ee2d-4a0f-b75d-73f775bc882a}, !- Schedule Type Limits Name
  {4accc278-2819-40e9-9079-e072f54f8aef}, !- Default Day Schedule Name
  {8e46398a-b3d6-4c35-b995-1cdea3875d27}, !- Summer Design Day Schedule Name
  {e5995091-acb2-4a00-a08e-83d6d66e206d}; !- Winter Design Day Schedule Name

OS:Schedule:Day,
  {4accc278-2819-40e9-9079-e072f54f8aef}, !- Handle
  Medium Office Electric Equipment All Other Days Schedule, !- Name
  {8de89c94-ee2d-4a0f-b75d-73f775bc882a}, !- Schedule Type Limits Name
  ,                                       !- Interpolate to Timestep
  24,                                     !- Hour 1
  0,                                      !- Minute 1
  0.3;                                    !- Value Until Time 1

OS:Schedule:Day,
  {f37921bd-45af-4854-87b0-544122c07ff9}, !- Handle
  Medium Office Electric Equipment Summer Design Day Schedule, !- Name
  ,                                       !- Schedule Type Limits Name
  ,                                       !- Interpolate to Timestep
  6,                                      !- Hour 1
  0,                                      !- Minute 1
  1,                                      !- Value Until Time 1
  24,                                     !- Hour 2
  0,                                      !- Minute 2
  0;                                      !- Value Until Time 2

OS:Schedule:Day,
  {8e46398a-b3d6-4c35-b995-1cdea3875d27}, !- Handle
  Medium Office Electric Equipment Summer Design Day Schedule 1, !- Name
  {8de89c94-ee2d-4a0f-b75d-73f775bc882a}, !- Schedule Type Limits Name
  ,                                       !- Interpolate to Timestep
  6,                                      !- Hour 1
  0,                                      !- Minute 1
  1,                                      !- Value Until Time 1
  24,                                     !- Hour 2
  0,                                      !- Minute 2
  0;                                      !- Value Until Time 2

OS:Schedule:Day,
  {cfd5b710-2da7-4c6b-8c11-84daf72cfe6e}, !- Handle
  Medium Office Electric Equipment Winter Design Day Schedule, !- Name
  ,                                       !- Schedule Type Limits Name
  ,                                       !- Interpolate to Timestep
  24,                                     !- Hour 1
  0,                                      !- Minute 1
  0;                                      !- Value Until Time 1

OS:Schedule:Day,
  {e5995091-acb2-4a00-a08e-83d6d66e206d}, !- Handle
  Medium Office Electric Equipment Winter Design Day Schedule 1, !- Name
  {8de89c94-ee2d-4a0f-b75d-73f775bc882a}, !- Schedule Type Limits Name
  ,                                       !- Interpolate to Timestep
  24,                                     !- Hour 1
  0,                                      !- Minute 1
  0;                                      !- Value Until Time 1

OS:Schedule:Rule,
  {941f45ba-a268-4020-ad2d-586d593d0b77}, !- Handle
  Medium Office Electric Equipment Schedule Weekdays Rule, !- Name
  {de0fd284-b74f-440c-96c2-9b718512be37}, !- Schedule Ruleset Name
  1,                                      !- Rule Order
  {e2e4b15b-fa7d-4152-82a4-266c76322fc2}, !- Day Schedule Name
  ,                                       !- Apply Sunday
  Yes,                                    !- Apply Monday
  Yes,                                    !- Apply Tuesday
  Yes,                                    !- Apply Wednesday
  Yes,                                    !- Apply Thursday
  Yes;                                    !- Apply Friday

OS:Schedule:Day,
  {e2e4b15b-fa7d-4152-82a4-266c76322fc2}, !- Handle
  Medium Office Electric Equipment Weekdays Schedule, !- Name
  {8de89c94-ee2d-4a0f-b75d-73f775bc882a}, !- Schedule Type Limits Name
  ,                                       !- Interpolate to Timestep
  8,                                      !- Hour 1
  0,                                      !- Minute 1
  0.4,                                    !- Value Until Time 1
  12,                                     !- Hour 2
  0,                                      !- Minute 2
  0.9,                                    !- Value Until Time 2
  13,                                     !- Hour 3
  0,                                      !- Minute 3
  0.8,                                    !- Value Until Time 3
  17,                                     !- Hour 4
  0,                                      !- Minute 4
  0.9,                                    !- Value Until Time 4
  18,                                     !- Hour 5
  0,                                      !- Minute 5
  0.8,                                    !- Value Until Time 5
  20,                                     !- Hour 6
  0,                                      !- Minute 6
  0.6,                                    !- Value Until Time 6
  22,                                     !- Hour 7
  0,                                      !- Minute 7
  0.5,                                    !- Value Until Time 7
  24,                                     !- Hour 8
  0,                                      !- Minute 8
  0.4;                                    !- Value Until Time 8

OS:Schedule:Rule,
  {55089544-54a1-4b69-b410-e4f32459e426}, !- Handle
  Medium Office Electric Equipment Schedule Saturday Rule, !- Name
  {de0fd284-b74f-440c-96c2-9b718512be37}, !- Schedule Ruleset Name
  0,                                      !- Rule Order
  {34302933-2267-4727-8854-c60b9cfead8f}, !- Day Schedule Name
  ,                                       !- Apply Sunday
  ,                                       !- Apply Monday
  ,                                       !- Apply Tuesday
  ,                                       !- Apply Wednesday