
OS:Version,
  {487e9a06-ec14-494a-82d0-d4c78a60ef2c}, !- Handle
  3.6.1;                                  !- Version Identifier

OS:AirLoopHVAC:UnitarySystem,
  {6caf8643-f5b9-4aad-92dd-8c474ccb822a}, !- Handle
  Unitary CC Eq,                          !- Name
  Load,                                   !- Control Type
  ,                                       !- Controlling Zone or Thermostat Location
  None,                                   !- Dehumidification Control Type
  ,                                       !- Availability Schedule Name
  ,                                       !- Air Inlet Node Name
  ,                                       !- Air Outlet Node Name
  ,                                       !- Supply Fan Name
  ,                                       !- Fan Placement
  ,                                       !- Supply Air Fan Operating Mode Schedule Name
  ,                                       !- Heating Coil Name
  1,                                      !- DX Heating Coil Sizing Ratio
  {556d4b9e-bf6e-4c66-a3ca-850545fd7101}, !- Cooling Coil Name
  No,                                     !- Use DOAS DX Cooling Coil
  2,                                      !- DOAS DX Cooling Coil Leaving Minimum Air Temperature {C}
  SensibleOnlyLoadControl,                !- Latent Load Control
  ,                                       !- Supplemental Heating Coil Name
  ,                                       !- Supply Air Flow Rate Method During Cooling Operation
  Autosize,                               !- Supply Air Flow Rate During Cooling Operation {m3/s}
  ,                                       !- Supply Air Flow Rate Per Floor Area During Cooling Operation {m3/s-m2}
  ,                                       !- Fraction of Autosized Design Cooling Supply Air Flow Rate
  ,                                       !- Design Supply Air Flow Rate Per Unit of Capacity During Cooling Operation {m3/s-W}
  ,                                       !- Supply Air Flow Rate Method During Heating Operation
  Autosize,                               !- Supply Air Flow Rate During Heating Operation {m3/s}
  ,                                       !- Supply Air Flow Rate Per Floor Area during Heating Operation {m3/s-m2}
  ,                                       !- Fraction of Autosized Design Heating Supply Air Flow Rate
  ,                                       !- Design Supply Air Flow Rate Per Unit of Capacity During Heating Operation {m3/s-W}
  ,                                       !- Supply Air Flow Rate Method When No Cooling or Heating is Required
  Autosize,                               !- Supply Air Flow Rate When No Cooling or Heating is Required {m3/s}
  ,                                       !- Supply Air Flow Rate Per Floor Area When No Cooling or Heating is Required {m3/s-m2}
  ,                                       !- Fraction of Autosized Design Cooling Supply Air Flow Rate When No Cooling or Heating is Required
  ,                                       !- Fraction of Autosized Design Heating Supply Air Flow Rate When No Cooling or Heating is Required
  ,                                       !- Design Supply Air Flow Rate Per Unit of Capacity During Cooling Operation When No Cooling or Heating is Required {m3/s-W}
  ,                                       !- Design Supply Air Flow Rate Per Unit of Capacity During Heating Operation When No Cooling or Heating is Required {m3/s-W}
  80,                                     !- Maximum Supply Air Temperature {C}
  21,                                     !- Maximum Outdoor Dry-Bulb Temperature for Supplemental Heater Operation {C}
  sensor,                                 !- Outdoor Dry-Bulb Temperature Sensor Node Name
  3.5,                                    !- Maximum Cycling Rate {cycles/hr}
  90,                                     !- Heat Pump Time Constant {s}
  0.05,                                   !- Fraction of On-Cycle Power Use
  120,                                    !- Heat Pump Fan Delay Time {s}
  2,                                      !- Ancilliary On-Cycle Electric Power {W}
  1;                                      !- Ancilliary Off-Cycle Electric Power {W}

OS:Coil:Cooling:WaterToAirHeatPump:EquationFit,
  {556d4b9e-bf6e-4c66-a3ca-850545fd7101}, !- Handle
  CC Eq Unitary,                          !- Name
  ,                                       !- Water Inlet Node Name
  ,                                       !- Water Outlet Node Name
  ,                                       !- Air Inlet Node Name
  ,                                       !- Air Outlet Node Name
  ,                                       !- Rated Air Flow Rate {m3/s}
  ,                                       !- Rated Water Flow Rate {m3/s}
  ,                                       !- Rated Total Cooling Capacity {W}
  ,                                       !- Rated Sensible Cooling Capacity {W}
  ,                                       !- Rated Cooling Coefficient of Performance {W/W}
  30,                                     !- Rated Entering Water Temperature {C}
  27,                                     !- Rated Entering Air Dry-Bulb Temperature {C}
  19,                                     !- Rated Entering Air Wet-Bulb Temperature {C}
  {a808deb9-2d13-4582-8ad4-05eb5c002c2b}, !- Total Cooling Capacity Curve Name
  {1a4d1622-b30a-4eba-a133-9c58114809b2}, !- Sensible Cooling Capacity Curve Name
  {4c917bd3-cce1-42c1-ba93-277a9697a20e}, !- Cooling Power Consumption Curve Name
  1.5,                                    !- Nominal Time for Condensate Removal to Begin {s}
  0.02;                                   !- Ratio of Initial Moisture Evaporation Rate and Steady State Latent Capacity {dimensionless}

OS:Curve:QuadLinear,
  {a808deb9-2d13-4582-8ad4-05eb5c002c2b}, !- Handle
  TotCoolCapCurve,                        !- Name
  -0.68126221,                            !- Coefficient1 Constant
  1.99529297,                             !- Coefficient2 w
  -0.93611888,                            !- Coefficient3 x
  0.02081177,                             !- Coefficient4 y
  0.008438868,                            !- Coefficient5 z
  -100,                                   !- Minimum Value of w {BasedOnField A2}
  100,                                    !- Maximum Value of w {BasedOnField A2}
  -100,                                   !- Minimum Value of x {BasedOnField A3}
  100,                                    !- Maximum Value of x {BasedOnField A3}
  0,                                      !- Minimum Value of y {BasedOnField A4}
  100,                                    !- Maximum Value of y {BasedOnField A4}
  0,                                      !- Minimum Value of z {BasedOnField A5}
  100;                                    !- Maximum Value of z {BasedOnField A5}

OS:Curve:QuintLinear,
  {1a4d1622-b30a-4eba-a133-9c58114809b2}, !- Handle
  Curve Quint Linear 1,                   !- Name
  2.24209455,                             !- Coefficient1 Constant
  7.28913391,                             !- Coefficient2 v
  -9.06079896,                            !- Coefficient3 w
  -0.36729404,                            !- Coefficient4 x
  0.218826161,                            !- Coefficient5 y
  0.00901534,                             !- Coefficient6 z
  -100,                                   !- Minimum Value of v {BasedOnField A2}
  100,                                    !- Maximum Value of v {BasedOnField A2}
  -100,                                   !- Minimum Value of w {BasedOnField A2}
  100,                                    !- Maximum Value of w {BasedOnField A2}
  -100,                                   !- Minimum Value of x {BasedOnField A3}
  100,                                    !- Maximum Value of x {BasedOnField A3}
  0,                                      !- Minimum Value of y {BasedOnField A4}
  100,                                    !- Maximum Value of y {BasedOnField A4}
  0,                                      !- Minimum Value of z {BasedOnField A5}
  100;                                    !- Maximum Value of z {BasedOnField A5}

OS:Curve:QuadLinear,
  {4c917bd3-cce1-42c1-ba93-277a9697a20e}, !- Handle
  CC Eq Unitary coolingPowerConsumptionCurve, !- Name
  -3.20456384,                            !- Coefficient1 Constant
  0.47656454,                             !- Coefficient2 w
  3.16734236,                             !- Coefficient3 x
  0.10244637,                             !- Coefficient4 y
  -0.038132556,                           !- Coefficient5 z
  -100,                                   !- Minimum Value of w {BasedOnField A2}
  100,                                    !- Maximum Value of w {BasedOnField A2}
  -100,                                   !- Minimum Value of x {BasedOnField A3}
  100,                                    !- Maximum Value of x {BasedOnField A3}
  0,                                      !- Minimum Value of y {BasedOnField A4}
  100,                                    !- Maximum Value of y {BasedOnField A4}
  0,                                      !- Minimum Value of z {BasedOnField A5}
  100;                                    !- Maximum Value of z {BasedOnField A5}

OS:AirLoopHVAC:UnitarySystem,
  {cad1fd9d-a425-4ad4-a6a1-413d7882ba67}, !- Handle
  Unitary HC Eq,                          !- Name
  Load,                                   !- Control Type
  ,                                       !- Controlling Zone or Thermostat Location
  None,                                   !- Dehumidification Control Type
  ,                                       !- Availability Schedule Name
  ,                                       !- Air Inlet Node Name
  ,                                       !- Air Outlet Node Name
  ,                                       !- Supply Fan Name
  ,                                       !- Fan Placement
  ,                                       !- Supply Air Fan Operating Mode Schedule Name
  {79b751b8-d80e-4d25-91a0-4b066c723be8}, !- Heating Coil Name
  1,                                      !- DX Heating Coil Sizing Ratio
  ,                                       !- Cooling Coil Name
  No,                                     !- Use DOAS DX Cooling Coil
  2,                                      !- DOAS DX Cooling Coil Leaving Minimum Air Temperature {C}
  SensibleOnlyLoadControl,                !- Latent Load Control
  ,                                       !- Supplemental Heating Coil Name
  ,                                       !- Supply Air Flow Rate Method During Cooling Operation
  Autosize,                               !- Supply Air Flow Rate During Cooling Operation {m3/s}
  ,                                       !- Supply Air Flow Rate Per Floor Area During Cooling Operation {m3/s-m2}
  ,                                       !- Fraction of Autosized Design Cooling Supply Air Flow Rate
  ,                                       !- Design Supply Air Flow Rate Per Unit of Capacity During Cooling Operation {m3/s-W}
  ,                                       !- Supply Air Flow Rate Method During Heating Operation
  Autosize,                               !- Supply Air Flow Rate During Heating Operation {m3/s}
  ,                                       !- Supply Air Flow Rate Per Floor Area during Heating Operation {m3/s-m2}
  ,                                       !- Fraction of Autosized Design Heating Supply Air Flow Rate
  ,                                       !- Design Supply Air Flow Rate Per Unit of Capacity During Heating Operation {m3/s-W}
  ,                                       !- Supply Air Flow Rate Method When No Cooling or Heating is Required
  Autosize,                               !- Supply Air Flow Rate When No Cooling or Heating is Required {m3/s}
  ,                                       !- Supply Air Flow Rate Per Floor Area When No Cooling or Heating is Required {m3/s-m2}
  ,                                       !- Fraction of Autosized Design Cooling Supply Air Flow Rate When No Cooling or Heating is Required
  ,                                       !- Fraction of Autosized Design Heating Supply Air Flow Rate When No Cooling or Heating is Required
  ,                                       !- Design Supply Air Flow Rate Per Unit of Capacity During Cooling Operation When No Cooling or Heating is Required {m3/s-W}
  ,                                       !- Design Supply Air Flow Rate Per Unit of Capacity During Heating Operation When No Cooling or Heating is Required {m3/s-W}
  80,                                     !- Maximum Supply Air Temperature {C}
  21,                                     !- Maximum Outdoor Dry-Bulb Temperature for Supplemental Heater Operation {C}
  sensor,                                 !- Outdoor Dry-Bulb Temperature Sensor Node Name
  3.5,                                    !- Maximum Cycling Rate {cycles/hr}
  90,                                     !- Heat Pump Time Constant {s}
  0.05,                                   !- Fraction of On-Cycle Power Use
  120,                                    !- Heat Pump Fan Delay Time {s}
  2,                                      !- Ancilliary On-Cycle Electric Power {W}
  1;                                      !- Ancilliary Off-Cycle Electric Power {W}

OS:Coil:Heating:WaterToAirHeatPump:EquationFit,
  {79b751b8-d80e-4d25-91a0-4b066c723be8}, !- Handle
  HC Eq Unitary,                          !- Name
  ,                                       !- Water Inlet Node Name
  ,                                       !- Water Outlet Node Name
  ,                                       !- Air Inlet Node Name
  ,                                       !- Air Outlet Node Name
  ,                                       !- Rated Air Flow Rate {m3/s}
  ,                                       !- Rated Water Flow Rate {m3/s}
  ,                                       !- Rated Heating Capacity {W}
  ,                                       !- Rated Heating Coefficient of Performance {W/W}
  20,                                     !- Rated Entering Water Temperature {C}
  20,                                     !- Rated Entering Air Dry-Bulb Temperature {C}
  1,                                      !- Ratio of Rated Heating Capacity to Rated Cooling Capacity
  {8b5bc1dc-cd08-41cb-b0ee-de1077589a0a}, !- Heating Capacity Curve Name
  {bc6d2d24-401e-4a96-a6bd-c0ef61d3723b}; !- Heating Power Consumption Curve Name

OS:Curve:QuadLinear,
  {8b5bc1dc-cd08-41cb-b0ee-de1077589a0a}, !- Handle
  Curve Quad Linear 1,                    !- Name
  -5.50102734,                            !- Coefficient1 Constant
  -0.96688754,                            !- Coefficient2 w
  7.70755007,                             !- Coefficient3 x
  0.031928881,                            !- Coefficient4 y
  0.028112522,                            !- Coefficient5 z
  -100,                                   !- Minimum Value of w {BasedOnField A2}
  100,                                    !- Maximum Value of w {BasedOnField A2}
  -100,                                   !- Minimum Value of x {BasedOnField A3}
  100,                                    !- Maximum Value of x {BasedOnField A3}
  0,                                      !- Minimum Value of y {BasedOnField A4}
  100,                                    !- Maximum Value of y {BasedOnField A4}
  0,                                      !- Minimum Value of z {BasedOnField A5}
  100;                                    !- Maximum Value of z {BasedOnField A5}

OS:Curve:QuadLinear,
  {bc6d2d24-401e-4a96-a6bd-c0ef61d3723b}, !- Handle
  HC Eq Unitary heatingPowerConsumptionCurve, !- Name
  -7.47517858,                            !- Coefficient1 Constant
  6.40876653,                             !- Coefficient2 w
  1.99711665,                             !- Coefficient3 x
  -0.050682973,                           !- Coefficient4 y
  0.011385145,                            !- Coefficient5 z
  -100,                                   !- Minimum Value of w {BasedOnField A2}
  100,                                    !- Maximum Value of w {BasedOnField A2}
  -100,                                   !- Minimum Value of x {BasedOnField A3}
  100,                                    !- Maximum Value of x {BasedOnField A3}
  0,                                      !- Minimum Value of y {BasedOnField A4}
  100,                                    !- Maximum Value of y {BasedOnField A4}
  0,                                      !- Minimum Value of z {BasedOnField A5}
  100;                                    !- Maximum Value of z {BasedOnField A5}

OS:AirLoopHVAC:UnitarySystem,
  {993eff9d-9c53-4ba2-8d16-e60a42a9e688}, !- Handle
  Unitary Both Eq,                        !- Name
  Load,                                   !- Control Type
  ,                                       !- Controlling Zone or Thermostat Location
  None,                                   !- Dehumidification Control Type
  ,                                       !- Availability Schedule Name
  ,                                       !- Air Inlet Node Name
  ,                                       !- Air Outlet Node Name
  ,                                       !- Supply Fan Name
  ,                                       !- Fan Placement
  ,                                       !- Supply Air Fan Operating Mode Schedule Name
  {8885e19e-883b-4251-be58-5706b90f8466}, !- Heating Coil Name
  1,                                      !- DX Heating Coil Sizing Ratio
  {791742b1-c0a2-4525-a69d-79d1c431af49}, !- Cooling Coil Name
  No,                                     !- Use DOAS DX Cooling Coil
  2,                                      !- DOAS DX Cooling Coil Leaving Minimum Air Temperature {C}
  SensibleOnlyLoadControl,                !- Latent Load Control
  ,                                       !- Supplemental Heating Coil Name
  ,                                       !- Supply Air Flow Rate Method During Cooling Operation
  Autosize,                               !- Supply Air Flow Rate During Cooling Operation {m3/s}
  ,                                       !- Supply Air Flow Rate Per Floor Area During Cooling Operation {m3/s-m2}
  ,                                       !- Fraction of Autosized Design Cooling Supply Air Flow Rate
  ,                                       !- Design Supply Air Flow Rate Per Unit of Capacity During Cooling Operation {m3/s-W}
  ,                                       !- Supply Air Flow Rate Method During Heating Operation
  Autosize,                               !- Supply Air Flow Rate During Heating Operation {m3/s}
  ,                                       !- Supply Air Flow Rate Per Floor Area during Heating Operation {m3/s-m2}
  ,                                       !- Fraction of Autosized Design Heating Supply Air Flow Rate
  ,                                       !- Design Supply Air Flow Rate Per Unit of Capacity During Heating Operation {m3/s-W}
  ,                                       !- Supply Air Flow Rate Method When No Cooling or Heating is Required
  Autosize,                               !- Supply Air Flow Rate When No Cooling or Heating is Required {m3/s}
  ,                                       !- Supply Air Flow Rate Per Floor Area When No Cooling or Heating is Required {m3/s-m2}
  ,                                       !- Fraction of Autosized Design Cooling Supply Air Flow Rate When No Cooling or Heating is Required
  ,                                       !- Fraction of Autosized Design Heating Supply Air Flow Rate When No Cooling or Heating is Required
  ,                                       !- Design Supply Air Flow Rate Per Unit of Capacity During Cooling Operation When No Cooling or Heating is Required {m3/s-W}
  ,                                       !- Design Supply Air Flow Rate Per Unit of Capacity During Heating Operation When No Cooling or Heating is Required {m3/s-W}
  80,                                     !- Maximum Supply Air Temperature {C}
  21,                                     !- Maximum Outdoor Dry-Bulb Temperature for Supplemental Heater Operation {C}
  sensor,                                 !- Outdoor Dry-Bulb Temperature Sensor Node Name
  3.5,                                    !- Maximum Cycling Rate {cycles/hr}
  90,                                     !- Heat Pump Time Constant {s}
  0.05,                                   !- Fraction of On-Cycle Power Use
  120,                                    !- Heat Pump Fan Delay Time {s}
  2,                                      !- Ancilliary On-Cycle Electric Power {W}
  1;                                      !- Ancilliary Off-Cycle Electric Power {W}

OS:Coil:Cooling:WaterToAirHeatPump:EquationFit,
  {791742b1-c0a2-4525-a69d-79d1c431af49}, !- Handle
  CC Eq Unitary Both,                     !- Name
  ,                                       !- Water Inlet Node Name
  ,                                       !- Water Outlet Node Name
  ,                                       !- Air Inlet Node Name
  ,                                       !- Air Outlet Node Name
  ,                                       !- Rated Air Flow Rate {m3/s}
  ,                                       !- Rated Water Flow Rate {m3/s}
  ,                                       !- Rated Total Cooling Capacity {W}
  ,                                       !- Rated Sensible Cooling Capacity {W}
  ,                                       !- Rated Cooling Coefficient of Performance {W/W}
  30,                                     !- Rated Entering Water Temperature {C}
  27,                                     !- Rated Entering Air Dry-Bulb Temperature {C}
  19,                                     !- Rated Entering Air Wet-Bulb Temperature {C}
  {8cd06a2b-0bac-4e3a-bfcb-f4115e10c71f}, !- Total Cooling Capacity Curve Name
  {2efa4557-a233-4ec1-abe0-efe007101626}, !- Sensible Cooling Capacity Curve Name
  {ecbfac5f-bbd5-4f12-872f-952c730356d0}, !- Cooling Power Consumption Curve Name
  1.5,                                    !- Nominal Time for Condensate Removal to Begin {s}
  0.02;                                   !- Ratio of Initial Moisture Evaporation Rate and Steady State Latent Capacity {dimensionless}

OS:Curve:QuadLinear,
  {8cd06a2b-0bac-4e3a-bfcb-f4115e10c71f}, !- Handle
  TotCoolCapCurve 1,                      !- Name
  -0.68126221,                            !- Coefficient1 Constant
  1.99529297,                             !- Coefficient2 w
  -0.93611888,                            !- Coefficient3 x
  0.02081177,                             !- Coefficient4 y
  0.008438868,                            !- Coefficient5 z
  -100,                                   !- Minimum Value of w {BasedOnField A2}
  100,                                    !- Maximum Value of w {BasedOnField A2}
  -100,                                   !- Minimum Value of x {BasedOnField A3}
  100,                                    !- Maximum Value of x {BasedOnField A3}
  0,                                      !- Minimum Value of y {BasedOnField A4}
  100,                                    !- Maximum Value of y {BasedOnField A4}
  0,                                      !- Minimum Value of z {BasedOnField A5}
  100;                                    !- Maximum Value of z {BasedOnField A5}

OS:Curve:QuintLinear,
  {2efa4557-a233-4ec1-abe0-efe007101626}, !- Handle
  Curve Quint Linear 2,                   !- Name
  2.24209455,                             !- Coefficient1 Constant
  7.28913391,                             !- Coefficient2 v
  -9.06079896,                            !- Coefficient3 w
  -0.36729404,                            !- Coefficient4 x
  0.218826161,                            !- Coefficient5 y
  0.00901534,                             !- Coefficient6 z
  -100,                                   !- Minimum Value of v {BasedOnField A2}
  100,                                    !- Maximum Value of v {BasedOnField A2}
  -100,                                   !- Minimum Value of w {BasedOnField A2}
  100,                                    !- Maximum Value of w {BasedOnField A2}
  -100,                                   !- Minimum Value of x {BasedOnField A3}
  100,                                    !- Maximum Value of x {BasedOnField A3}
  0,                                      !- Minimum Value of y {BasedOnField A4}
  100,                                    !- Maximum Value of y {BasedOnField A4}
  0,                                      !- Minimum Value of z {BasedOnField A5}
  100;                                    !- Maximum Value of z {BasedOnField A5}

OS:Curve:QuadLinear,
  {ecbfac5f-bbd5-4f12-872f-952c730356d0}, !- Handle
  CC Eq Unitary Both coolingPowerConsumptionCurve, !- Name
  -3.20456384,                            !- Coefficient1 Constant
  0.47656454,                             !- Coefficient2 w
  3.16734236,                             !- Coefficient3 x
  0.10244637,                             !- Coefficient4 y
  -0.038132556,                           !- Coefficient5 z
  -100,                                   !- Minimum Value of w {BasedOnField A2}
  100,                                    !- Maximum Value of w {BasedOnField A2}
  -100,                                   !- Minimum Value of x {BasedOnField A3}
  100,                                    !- Maximum Value of x {BasedOnField A3}
  0,                                      !- Minimum Value of y {BasedOnField A4}
  100,                                    !- Maximum Value of y {BasedOnField A4}
  0,                                      !- Minimum Value of z {BasedOnField A5}
  100;                                    !- Maximum Value of z {BasedOnField A5}

OS:Coil:Heating:WaterToAirHeatPump:EquationFit,
  {8885e19e-883b-4251-be58-5706b90f8466}, !- Handle
  HC Eq Unitary Both,                     !- Name
  ,                                       !- Water Inlet Node Name
  ,                                       !- Water Outlet Node Name
  ,                                       !- Air Inlet Node Name
  ,                                       !- Air Outlet Node Name
  ,                                       !- Rated Air Flow Rate {m3/s}
  ,                                       !- Rated Water Flow Rate {m3/s}
  ,                                       !- Rated Heating Capacity {W}
  ,                                       !- Rated Heating Coefficient of Performance {W/W}
  20,                                     !- Rated Entering Water Temperature {C}
  20,                                     !- Rated Entering Air Dry-Bulb Temperature {C}
  1,                                      !- Ratio of Rated Heating Capacity to Rated Cooling Capacity
  {7d778352-bb52-408f-b2cb-dbfb42d8d6fc}, !- Heating Capacity Curve Name
  {13e5dd21-a809-405f-aaea-5b27527a673b}; !- Heating Power Consumption Curve Name

OS:Curve:QuadLinear,
  {7d778352-bb52-408f-b2cb-dbfb42d8d6fc}, !- Handle
  Curve Quad Linear 2,                    !- Name
  -5.50102734,                            !- Coefficient1 Constant
  -0.96688754,                            !- Coefficient2 w
  7.70755007,                             !- Coefficient3 x
  0.031928881,                            !- Coefficient4 y
  0.028112522,                            !- Coefficient5 z
  -100,                                   !- Minimum Value of w {BasedOnField A2}
  100,                                    !- Maximum Value of w {BasedOnField A2}
  -100,                                   !- Minimum Value of x {BasedOnField A3}
  100,                                    !- Maximum Value of x {BasedOnField A3}
  0,                                      !- Minimum Value of y {BasedOnField A4}
  100,                                    !- Maximum Value of y {BasedOnField A4}
  0,                                      !- Minimum Value of z {BasedOnField A5}
  100;                                    !- Maximum Value of z {BasedOnField A5}

OS:Curve:QuadLinear,
  {13e5dd21-a809-405f-aaea-5b27527a673b}, !- Handle
  HC Eq Unitary Both heatingPowerConsumptionCurve, !- Name
  -7.47517858,                            !- Coefficient1 Constant
  6.40876653,                             !- Coefficient2 w
  1.99711665,                             !- Coefficient3 x
  -0.050682973,                           !- Coefficient4 y
  0.011385145,                            !- Coefficient5 z
  -100,                                   !- Minimum Value of w {BasedOnField A2}
  100,                                    !- Maximum Value of w {BasedOnField A2}
  -100,                                   !- Minimum Value of x {BasedOnField A3}
  100,                                    !- Maximum Value of x {BasedOnField A3}
  0,                                      !- Minimum Value of y {BasedOnField A4}
  100,                                    !- Maximum Value of y {BasedOnField A4}
  0,                                      !- Minimum Value of z {BasedOnField A5}
  100;                                    !- Maximum Value of z {BasedOnField A5}

