
OS:Version,
  {826bc855-f2b0-4d21-a4e0-7feb01bf135a}, !- Handle
  3.6.1;                                  !- Version Identifier

OS:AirLoopHVAC:UnitarySystem,
  {58e19f48-4089-4b57-9e5e-18ea9c483ad2}, !- Handle
  SAF_correct - add_heating_coil,         !- Name
  Load,                                   !- Control Type
  ,                                       !- Controlling Zone or Thermostat Location
  None,                                   !- Dehumidification Control Type
  ,                                       !- Availability Schedule Name
  ,                                       !- Air Inlet Node Name
  ,                                       !- Air Outlet Node Name
  ,                                       !- Supply Fan Name
  ,                                       !- Fan Placement
  ,                                       !- Supply Air Fan Operating Mode Schedule Name
  {a3fd1a80-687a-4e6c-8552-0a37f52978de}, !- Heating Coil Name
  1,                                      !- DX Heating Coil Sizing Ratio
  ,                                       !- Cooling Coil Name
  No,                                     !- Use DOAS DX Cooling Coil
  2,                                      !- DOAS DX Cooling Coil Leaving Minimum Air Temperature {C}
  SensibleOnlyLoadControl,                !- Latent Load Control
  ,                                       !- Supplemental Heating Coil Name
  FlowPerFloorArea,                       !- Supply Air Flow Rate Method During Cooling Operation
  1,                                      !- Supply Air Flow Rate During Cooling Operation {m3/s}
  1.1,                                    !- Supply Air Flow Rate Per Floor Area During Cooling Operation {m3/s-m2}
  1.2,                                    !- Fraction of Autosized Design Cooling Supply Air Flow Rate
  1.3,                                    !- Design Supply Air Flow Rate Per Unit of Capacity During Cooling Operation {m3/s-W}
  FlowPerHeatingCapacity,                 !- Supply Air Flow Rate Method During Heating Operation
  2,                                      !- Supply Air Flow Rate During Heating Operation {m3/s}
  2.1,                                    !- Supply Air Flow Rate Per Floor Area during Heating Operation {m3/s-m2}
  2.2,                                    !- Fraction of Autosized Design Heating Supply Air Flow Rate
  2.3,                                    !- Design Supply Air Flow Rate Per Unit of Capacity During Heating Operation {m3/s-W}
  FractionOfAutosizedHeatingValue,        !- Supply Air Flow Rate Method When No Cooling or Heating is Required
  0.1,                                    !- Supply Air Flow Rate When No Cooling or Heating is Required {m3/s}
  0.2,                                    !- Supply Air Flow Rate Per Floor Area When No Cooling or Heating is Required {m3/s-m2}
  0.3,                                    !- Fraction of Autosized Design Cooling Supply Air Flow Rate When No Cooling or Heating is Required
  0.4,                                    !- Fraction of Autosized Design Heating Supply Air Flow Rate When No Cooling or Heating is Required
  0.5,                                    !- Design Supply Air Flow Rate Per Unit of Capacity During Cooling Operation When No Cooling or Heating is Required {m3/s-W}
  0.6,                                    !- Design Supply Air Flow Rate Per Unit of Capacity During Heating Operation When No Cooling or Heating is Required {m3/s-W}
  80,                                     !- Maximum Supply Air Temperature {C}
  21,                                     !- Maximum Outdoor Dry-Bulb Temperature for Supplemental Heater Operation {C}
  ,                                       !- Outdoor Dry-Bulb Temperature Sensor Node Name
  2.5,                                    !- Maximum Cycling Rate {cycles/hr}
  60,                                     !- Heat Pump Time Constant {s}
  0.01,                                   !- Fraction of On-Cycle Power Use
  60,                                     !- Heat Pump Fan Delay Time {s}
  0,                                      !- Ancilliary On-Cycle Electric Power {W}
  0;                                      !- Ancilliary Off-Cycle Electric Power {W}

OS:AirLoopHVAC:UnitarySystem,
  {18f22c23-ad26-44ba-bc05-c08bcd95c845}, !- Handle
  SAF_correct - add_cooling_coil,         !- Name
  Load,                                   !- Control Type
  ,                                       !- Controlling Zone or Thermostat Location
  None,                                   !- Dehumidification Control Type
  ,                                       !- Availability Schedule Name
  ,                                       !- Air Inlet Node Name
  ,                                       !- Air Outlet Node Name
  ,                                       !- Supply Fan Name
  ,                                       !- Fan Placement
  ,                                       !- Supply Air Fan Operating Mode Schedule Name
  ,                                       !- Heating Coil Name
  1,                                      !- DX Heating Coil Sizing Ratio
  {cb92d862-d9a0-4e5f-85e6-18684de45d25}, !- Cooling Coil Name
  No,                                     !- Use DOAS DX Cooling Coil
  2,                                      !- DOAS DX Cooling Coil Leaving Minimum Air Temperature {C}
  SensibleOnlyLoadControl,                !- Latent Load Control
  ,                                       !- Supplemental Heating Coil Name
  FlowPerFloorArea,                       !- Supply Air Flow Rate Method During Cooling Operation
  1,                                      !- Supply Air Flow Rate During Cooling Operation {m3/s}
  1.1,                                    !- Supply Air Flow Rate Per Floor Area During Cooling Operation {m3/s-m2}
  1.2,                                    !- Fraction of Autosized Design Cooling Supply Air Flow Rate
  1.3,                                    !- Design Supply Air Flow Rate Per Unit of Capacity During Cooling Operation {m3/s-W}
  FlowPerHeatingCapacity,                 !- Supply Air Flow Rate Method During Heating Operation
  2,                                      !- Supply Air Flow Rate During Heating Operation {m3/s}
  2.1,                                    !- Supply Air Flow Rate Per Floor Area during Heating Operation {m3/s-m2}
  2.2,                                    !- Fraction of Autosized Design Heating Supply Air Flow Rate
  2.3,                                    !- Design Supply Air Flow Rate Per Unit of Capacity During Heating Operation {m3/s-W}
  FractionOfAutosizedHeatingValue,        !- Supply Air Flow Rate Method When No Cooling or Heating is Required
  0.1,                                    !- Supply Air Flow Rate When No Cooling or Heating is Required {m3/s}
  0.2,                                    !- Supply Air Flow Rate Per Floor Area When No Cooling or Heating is Required {m3/s-m2}
  0.3,                                    !- Fraction of Autosized Design Cooling Supply Air Flow Rate When No Cooling or Heating is Required
  0.4,                                    !- Fraction of Autosized Design Heating Supply Air Flow Rate When No Cooling or Heating is Required
  0.5,                                    !- Design Supply Air Flow Rate Per Unit of Capacity During Cooling Operation When No Cooling or Heating is Required {m3/s-W}
  0.6,                                    !- Design Supply Air Flow Rate Per Unit of Capacity During Heating Operation When No Cooling or Heating is Required {m3/s-W}
  80,                                     !- Maximum Supply Air Temperature {C}
  21,                                     !- Maximum Outdoor Dry-Bulb Temperature for Supplemental Heater Operation {C}
  ,                                       !- Outdoor Dry-Bulb Temperature Sensor Node Name
  2.5,                                    !- Maximum Cycling Rate {cycles/hr}
  60,                                     !- Heat Pump Time Constant {s}
  0.01,                                   !- Fraction of On-Cycle Power Use
  60,                                     !- Heat Pump Fan Delay Time {s}
  0,                                      !- Ancilliary On-Cycle Electric Power {W}
  0;                                      !- Ancilliary Off-Cycle Electric Power {W}

OS:AirLoopHVAC:UnitarySystem,
  {891b942e-5509-4dc2-b924-1576b2326fc4}, !- Handle
  SAF_correct - None,                     !- Name
  Load,                                   !- Control Type
  ,                                       !- Controlling Zone or Thermostat Location
  None,                                   !- Dehumidification Control Type
  ,                                       !- Availability Schedule Name
  ,                                       !- Air Inlet Node Name
  ,                                       !- Air Outlet Node Name
  ,                                       !- Supply Fan Name
  ,                                       !- Fan Placement
  ,                                       !- Supply Air Fan Operating Mode Schedule Name
  ,                                       !- Heating Coil Name
  1,                                      !- DX Heating Coil Sizing Ratio
  ,                                       !- Cooling Coil Name
  No,                                     !- Use DOAS DX Cooling Coil
  2,                                      !- DOAS DX Cooling Coil Leaving Minimum Air Temperature {C}
  SensibleOnlyLoadControl,                !- Latent Load Control
  ,                                       !- Supplemental Heating Coil Name
  FlowPerFloorArea,                       !- Supply Air Flow Rate Method During Cooling Operation
  1,                                      !- Supply Air Flow Rate During Cooling Operation {m3/s}
  1.1,                                    !- Supply Air Flow Rate Per Floor Area During Cooling Operation {m3/s-m2}
  1.2,                                    !- Fraction of Autosized Design Cooling Supply Air Flow Rate
  1.3,                                    !- Design Supply Air Flow Rate Per Unit of Capacity During Cooling Operation {m3/s-W}
  FlowPerHeatingCapacity,                 !- Supply Air Flow Rate Method During Heating Operation
  2,                                      !- Supply Air Flow Rate During Heating Operation {m3/s}
  2.1,                                    !- Supply Air Flow Rate Per Floor Area during Heating Operation {m3/s-m2}
  2.2,                                    !- Fraction of Autosized Design Heating Supply Air Flow Rate
  2.3,                                    !- Design Supply Air Flow Rate Per Unit of Capacity During Heating Operation {m3/s-W}
  FractionOfAutosizedHeatingValue,        !- Supply Air Flow Rate Method When No Cooling or Heating is Required
  0.1,                                    !- Supply Air Flow Rate When No Cooling or Heating is Required {m3/s}
  0.2,                                    !- Supply Air Flow Rate Per Floor Area When No Cooling or Heating is Required {m3/s-m2}
  0.3,                                    !- Fraction of Autosized Design Cooling Supply Air Flow Rate When No Cooling or Heating is Required
  0.4,                                    !- Fraction of Autosized Design Heating Supply Air Flow Rate When No Cooling or Heating is Required
  0.5,                                    !- Design Supply Air Flow Rate Per Unit of Capacity During Cooling Operation When No Cooling or Heating is Required {m3/s-W}
  0.6,                                    !- Design Supply Air Flow Rate Per Unit of Capacity During Heating Operation When No Cooling or Heating is Required {m3/s-W}
  80,                                     !- Maximum Supply Air Temperature {C}
  21,                                     !- Maximum Outdoor Dry-Bulb Temperature for Supplemental Heater Operation {C}
  ,                                       !- Outdoor Dry-Bulb Temperature Sensor Node Name
  2.5,                                    !- Maximum Cycling Rate {cycles/hr}
  60,                                     !- Heat Pump Time Constant {s}
  0.01,                                   !- Fraction of On-Cycle Power Use
  60,                                     !- Heat Pump Fan Delay Time {s}
  0,                                      !- Ancilliary On-Cycle Electric Power {W}
  0;                                      !- Ancilliary Off-Cycle Electric Power {W}

OS:Coil:Cooling:DX:SingleSpeed,
  {cb92d862-d9a0-4e5f-85e6-18684de45d25}, !- Handle
  Coil Cooling DX Single Speed 1,         !- Name
  {3d5fe8ea-ba4b-40b5-a714-5b9ccef5eef0}, !- Availability Schedule Name
  autosize,                               !- Rated Total Cooling Capacity {W}
  autosize,                               !- Rated Sensible Heat Ratio
  3,                                      !- Rated COP {W/W}
  autosize,                               !- Rated Air Flow Rate {m3/s}
  773.3,                                  !- Rated Evaporator Fan Power Per Volume Flow Rate 2017 {W/(m3/s)}
  934.4,                                  !- Rated Evaporator Fan Power Per Volume Flow Rate 2023 {W/(m3/s)}
  ,                                       !- Air Inlet Node Name
  ,                                       !- Air Outlet Node Name
  {3e685313-d3b8-4f51-81ec-faa748cb0ccf}, !- Total Cooling Capacity Function of Temperature Curve Name
  {9442da5a-0cd8-4014-ae12-784c9021760c}, !- Total Cooling Capacity Function of Flow Fraction Curve Name
  {d14f84e0-acc8-4d8c-acff-529a16de7ce1}, !- Energy Input Ratio Function of Temperature Curve Name
  {8e6cd4dd-3705-4541-8afe-9bfe326baf9f}, !- Energy Input Ratio Function of Flow Fraction Curve Name
  {a4ec44c3-6139-4982-a95c-a8a3807b2205}, !- Part Load Fraction Correlation Curve Name
  -25,                                    !- Minimum Outdoor Dry-Bulb Temperature for Compressor Operation {C}
  0,                                      !- Nominal Time for Condensate Removal to Begin {s}
  0,                                      !- Ratio of Initial Moisture Evaporation Rate and Steady State Latent Capacity {dimensionless}
  0,                                      !- Maximum Cycling Rate {cycles/hr}
  0,                                      !- Latent Capacity Time Constant {s}
  ,                                       !- Condenser Air Inlet Node Name
  AirCooled,                              !- Condenser Type
  0.9,                                    !- Evaporative Condenser Effectiveness {dimensionless}
  autosize,                               !- Evaporative Condenser Air Flow Rate {m3/s}
  autosize,                               !- Evaporative Condenser Pump Rated Power Consumption {W}
  0,                                      !- Crankcase Heater Capacity {W}
  10,                                     !- Maximum Outdoor Dry-Bulb Temperature for Crankcase Heater Operation {C}
  ,                                       !- Supply Water Storage Tank Name
  ,                                       !- Condensate Collection Water Storage Tank Name
  0,                                      !- Basin Heater Capacity {W/K}
  2;                                      !- Basin Heater Setpoint Temperature {C}

OS:Curve:Biquadratic,
  {3e685313-d3b8-4f51-81ec-faa748cb0ccf}, !- Handle
  Curve Biquadratic 1,                    !- Name
  0.942587793,                            !- Coefficient1 Constant
  0.009543347,                            !- Coefficient2 x
  0.00068377,                             !- Coefficient3 x**2
  -0.011042676,                           !- Coefficient4 y
  5.249e-06,                              !- Coefficient5 y**2
  -9.72e-06,                              !- Coefficient6 x*y
  17,                                     !- Minimum Value of x
  22,                                     !- Maximum Value of x
  13,                                     !- Minimum Value of y
  46;                                     !- Maximum Value of y

OS:Curve:Quadratic,
  {9442da5a-0cd8-4014-ae12-784c9021760c}, !- Handle
  Curve Quadratic 1,                      !- Name
  0.8,                                    !- Coefficient1 Constant
  0.2,                                    !- Coefficient2 x
  0,                                      !- Coefficient3 x**2
  0.5,                                    !- Minimum Value of x
  1.5;                                    !- Maximum Value of x

OS:Curve:Biquadratic,
  {d14f84e0-acc8-4d8c-acff-529a16de7ce1}, !- Handle
  Curve Biquadratic 2,                    !- Name
  0.342414409,                            !- Coefficient1 Constant
  0.034885008,                            !- Coefficient2 x
  -0.0006237,                             !- Coefficient3 x**2
  0.004977216,                            !- Coefficient4 y
  0.000437951,                            !- Coefficient5 y**2
  -0.000728028,                           !- Coefficient6 x*y
  17,                                     !- Minimum Value of x
  22,                                     !- Maximum Value of x
  13,                                     !- Minimum Value of y
  46;                                     !- Maximum Value of y

OS:Curve:Quadratic,
  {8e6cd4dd-3705-4541-8afe-9bfe326baf9f}, !- Handle
  Curve Quadratic 2,                      !- Name
  1.1552,                                 !- Coefficient1 Constant
  -0.1808,                                !- Coefficient2 x
  0.0256,                                 !- Coefficient3 x**2
  0.5,                                    !- Minimum Value of x
  1.5;                                    !- Maximum Value of x

OS:Curve:Quadratic,
  {a4ec44c3-6139-4982-a95c-a8a3807b2205}, !- Handle
  Curve Quadratic 3,                      !- Name
  0.85,                                   !- Coefficient1 Constant
  0.15,                                   !- Coefficient2 x
  0,                                      !- Coefficient3 x**2
  0,                                      !- Minimum Value of x
  1;                                      !- Maximum Value of x

OS:Schedule:Constant,
  {3d5fe8ea-ba4b-40b5-a714-5b9ccef5eef0}, !- Handle
  Always On Discrete,                     !- Name
  {6848911b-d942-4905-a3d7-a0994b4241f0}, !- Schedule Type Limits Name
  1;                                      !- Value

OS:ScheduleTypeLimits,
  {6848911b-d942-4905-a3d7-a0994b4241f0}, !- Handle
  OnOff,                                  !- Name
  0,                                      !- Lower Limit Value
  1,                                      !- Upper Limit Value
  Discrete,                               !- Numeric Type
  Availability;                           !- Unit Type

OS:Coil:Heating:DX:SingleSpeed,
  {a3fd1a80-687a-4e6c-8552-0a37f52978de}, !- Handle
  Coil Heating DX Single Speed 1,         !- Name
  {3d5fe8ea-ba4b-40b5-a714-5b9ccef5eef0}, !- Availability Schedule Name
  Autosize,                               !- Rated Total Heating Capacity {W}
  5,                                      !- Rated COP {W/W}
  Autosize,                               !- Rated Air Flow Rate {m3/s}
  773.3,                                  !- Rated Supply Fan Power Per Volume Flow Rate 2017 {W/(m3/s)}
  934.4,                                  !- Rated Supply Fan Power Per Volume Flow Rate 2023 {W/(m3/s)}
  ,                                       !- Air Inlet Node Name
  ,                                       !- Air Outlet Node Name
  {4929c2de-327f-4aef-9148-88958a4ea035}, !- Total Heating Capacity Function of Temperature Curve Name
  {c16602e7-747a-45d2-b5e3-61006c406dac}, !- Total Heating Capacity Function of Flow Fraction Curve Name
  {60d95f6b-2975-4bc2-a419-c058bd09a09b}, !- Energy Input Ratio Function of Temperature Curve Name
  {c84710ff-52d9-4e54-a8d8-9548057e0b9e}, !- Energy Input Ratio Function of Flow Fraction Curve Name
  {5f186b70-8f3e-4d94-b6c4-714b123581f0}, !- Part Load Fraction Correlation Curve Name
  ,                                       !- Defrost Energy Input Ratio Function of Temperature Curve Name
  ,                                       !- Minimum Outdoor Dry-Bulb Temperature for Compressor Operation {C}
  ,                                       !- Maximum Outdoor Dry-Bulb Temperature for Defrost Operation {C}
  ,                                       !- Crankcase Heater Capacity {W}
  ,                                       !- Maximum Outdoor Dry-Bulb Temperature for Crankcase Heater Operation {C}
  Resistive,                              !- Defrost Strategy
  Timed,                                  !- Defrost Control
  0.166667,                               !- Defrost Time Period Fraction
  2000;                                   !- Resistive Defrost Heater Capacity {W}

OS:Curve:Cubic,
  {4929c2de-327f-4aef-9148-88958a4ea035}, !- Handle
  Curve Cubic 1,                          !- Name
  0.758746,                               !- Coefficient1 Constant
  0.027626,                               !- Coefficient2 x
  0.000148716,                            !- Coefficient3 x**2
  3.4992e-06,                             !- Coefficient4 x**3
  -20,                                    !- Minimum Value of x
  20;                                     !- Maximum Value of x

OS:Curve:Cubic,
  {c16602e7-747a-45d2-b5e3-61006c406dac}, !- Handle
  Curve Cubic 2,                          !- Name
  0.84,                                   !- Coefficient1 Constant
  0.16,                                   !- Coefficient2 x
  0,                                      !- Coefficient3 x**2
  0,                                      !- Coefficient4 x**3
  0.5,                                    !- Minimum Value of x
  1.5;                                    !- Maximum Value of x

OS:Curve:Cubic,
  {60d95f6b-2975-4bc2-a419-c058bd09a09b}, !- Handle
  Curve Cubic 3,                          !- Name
  1.19248,                                !- Coefficient1 Constant
  -0.0300438,                             !- Coefficient2 x
  0.00103745,                             !- Coefficient3 x**2
  -2.3328e-05,                            !- Coefficient4 x**3
  -20,                                    !- Minimum Value of x
  20;                                     !- Maximum Value of x

OS:Curve:Quadratic,
  {c84710ff-52d9-4e54-a8d8-9548057e0b9e}, !- Handle
  Curve Quadratic 4,                      !- Name
  1.3824,                                 !- Coefficient1 Constant
  -0.4336,                                !- Coefficient2 x
  0.0512,                                 !- Coefficient3 x**2
  0,                                      !- Minimum Value of x
  1;                                      !- Maximum Value of x

OS:Curve:Quadratic,
  {5f186b70-8f3e-4d94-b6c4-714b123581f0}, !- Handle
  Curve Quadratic 5,                      !- Name
  0.75,                                   !- Coefficient1 Constant
  0.25,                                   !- Coefficient2 x
  0,                                      !- Coefficient3 x**2
  0,                                      !- Minimum Value of x
  1;                                      !- Maximum Value of x

