
OS:Version,
  {f8f2a87c-9610-498f-8b91-dcd4ca397b6d}, !- Handle
  3.6.1;                                  !- Version Identifier

OS:Fan:OnOff,
  {ed39fd56-9103-417c-8094-e262bfd58bc9}, !- Handle
  WAHP Eq Fan On Off,                     !- Name
  {882b93c0-d281-4489-8f22-bc75a9d62eb7}, !- Availability Schedule Name
  0.6,                                    !- Fan Total Efficiency
  300,                                    !- Pressure Rise {Pa}
  autosize,                               !- Maximum Flow Rate {m3/s}
  0.8,                                    !- Motor Efficiency
  1,                                      !- Motor In Airstream Fraction
  ,                                       !- Air Inlet Node Name
  ,                                       !- Air Outlet Node Name
  {89ac396a-7f95-44d1-aa6f-cad408033997}, !- Fan Power Ratio Function of Speed Ratio Curve Name
  {5273bf34-61b6-4151-b3da-6188d60769bf}, !- Fan Efficiency Ratio Function of Speed Ratio Curve Name
  ;                                       !- End-Use Subcategory

OS:Schedule:Constant,
  {882b93c0-d281-4489-8f22-bc75a9d62eb7}, !- Handle
  Always On Discrete,                     !- Name
  {b869b5f1-d09f-4955-8ec2-349918622da4}, !- Schedule Type Limits Name
  1;                                      !- Value

OS:ScheduleTypeLimits,
  {b869b5f1-d09f-4955-8ec2-349918622da4}, !- Handle
  OnOff,                                  !- Name
  0,                                      !- Lower Limit Value
  1,                                      !- Upper Limit Value
  Discrete,                               !- Numeric Type
  Availability;                           !- Unit Type

OS:Curve:Exponent,
  {89ac396a-7f95-44d1-aa6f-cad408033997}, !- Handle
  Fan On Off Power Curve,                 !- Name
  1,                                      !- Coefficient1 Constant
  0,                                      !- Coefficient2 Constant
  0,                                      !- Coefficient3 Constant
  0,                                      !- Minimum Value of x
  1,                                      !- Maximum Value of x
  ,                                       !- Minimum Curve Output
  ,                                       !- Maximum Curve Output
  ,                                       !- Input Unit Type for X
  ;                                       !- Output Unit Type

OS:Curve:Cubic,
  {5273bf34-61b6-4151-b3da-6188d60769bf}, !- Handle
  Fan On Off Efficiency Curve,            !- Name
  1,                                      !- Coefficient1 Constant
  0,                                      !- Coefficient2 x
  0,                                      !- Coefficient3 x**2
  0,                                      !- Coefficient4 x**3
  0,                                      !- Minimum Value of x
  1;                                      !- Maximum Value of x

OS:Coil:Cooling:WaterToAirHeatPump:EquationFit,
  {7ac39e05-b3b3-4498-ab86-7d0eee006d29}, !- Handle
  CC Eq WAHP,                             !- Name
  ,                                       !- Water Inlet Node Name
  ,                                       !- Water Outlet Node Name
  ,                                       !- Air Inlet Node Name
  ,                                       !- Air Outlet Node Name
  ,                                       !- Rated Air Flow Rate {m3/s}
  ,                                       !- Rated Water Flow Rate {m3/s}
  ,                                       !- Rated Total Cooling Capacity {W}
  ,                                       !- Rated Sensible Cooling Capacity {W}
  ,                                       !- Rated Cooling Coefficient of Performance {W/W}
  30,                                     !- Rated Entering Water Temperature {C}
  27,                                     !- Rated Entering Air Dry-Bulb Temperature {C}
  19,                                     !- Rated Entering Air Wet-Bulb Temperature {C}
  {b4c9f3d9-810a-4407-9476-f1452ccbaad6}, !- Total Cooling Capacity Curve Name
  {74124275-392f-43f0-8342-a32073aa3a89}, !- Sensible Cooling Capacity Curve Name
  {747a012b-e0db-4669-80f5-f68c5b75c0e9}, !- Cooling Power Consumption Curve Name
  1.5,                                    !- Nominal Time for Condensate Removal to Begin {s}
  0.02;                                   !- Ratio of Initial Moisture Evaporation Rate and Steady State Latent Capacity {dimensionless}

OS:Curve:QuadLinear,
  {b4c9f3d9-810a-4407-9476-f1452ccbaad6}, !- Handle
  TotCoolCapCurve,                        !- Name
  -0.68126221,                            !- Coefficient1 Constant
  1.99529297,                             !- Coefficient2 w
  -0.93611888,                            !- Coefficient3 x
  0.02081177,                             !- Coefficient4 y
  0.008438868,                            !- Coefficient5 z
  -100,                                   !- Minimum Value of w {BasedOnField A2}
  100,                                    !- Maximum Value of w {BasedOnField A2}
  -100,                                   !- Minimum Value of x {BasedOnField A3}
  100,                                    !- Maximum Value of x {BasedOnField A3}
  0,                                      !- Minimum Value of y {BasedOnField A4}
  100,                                    !- Maximum Value of y {BasedOnField A4}
  0,                                      !- Minimum Value of z {BasedOnField A5}
  100;                                    !- Maximum Value of z {BasedOnField A5}

OS:Curve:QuintLinear,
  {74124275-392f-43f0-8342-a32073aa3a89}, !- Handle
  Curve Quint Linear 1,                   !- Name
  2.24209455,                             !- Coefficient1 Constant
  7.28913391,                             !- Coefficient2 v
  -9.06079896,                            !- Coefficient3 w
  -0.36729404,                            !- Coefficient4 x
  0.218826161,                            !- Coefficient5 y
  0.00901534,                             !- Coefficient6 z
  -100,                                   !- Minimum Value of v {BasedOnField A2}
  100,                                    !- Maximum Value of v {BasedOnField A2}
  -100,                                   !- Minimum Value of w {BasedOnField A2}
  100,                                    !- Maximum Value of w {BasedOnField A2}
  -100,                                   !- Minimum Value of x {BasedOnField A3}
  100,                                    !- Maximum Value of x {BasedOnField A3}
  0,                                      !- Minimum Value of y {BasedOnField A4}
  100,                                    !- Maximum Value of y {BasedOnField A4}
  0,                                      !- Minimum Value of z {BasedOnField A5}
  100;                                    !- Maximum Value of z {BasedOnField A5}

OS:Curve:QuadLinear,
  {747a012b-e0db-4669-80f5-f68c5b75c0e9}, !- Handle
  CC Eq WAHP coolingPowerConsumptionCurve, !- Name
  -3.20456384,                            !- Coefficient1 Constant
  0.47656454,                             !- Coefficient2 w
  3.16734236,                             !- Coefficient3 x
  0.10244637,                             !- Coefficient4 y
  -0.038132556,                           !- Coefficient5 z
  -100,                                   !- Minimum Value of w {BasedOnField A2}
  100,                                    !- Maximum Value of w {BasedOnField A2}
  -100,                                   !- Minimum Value of x {BasedOnField A3}
  100,                                    !- Maximum Value of x {BasedOnField A3}
  0,                                      !- Minimum Value of y {BasedOnField A4}
  100,                                    !- Maximum Value of y {BasedOnField A4}
  0,                                      !- Minimum Value of z {BasedOnField A5}
  100;                                    !- Maximum Value of z {BasedOnField A5}

OS:Coil:Heating:WaterToAirHeatPump:EquationFit,
  {bae2f1f9-e6dd-4d52-853e-8a996ef09fd2}, !- Handle
  HC Eq WAHP,                             !- Name
  ,                                       !- Water Inlet Node Name
  ,                                       !- Water Outlet Node Name
  ,                                       !- Air Inlet Node Name
  ,                                       !- Air Outlet Node Name
  ,                                       !- Rated Air Flow Rate {m3/s}
  ,                                       !- Rated Water Flow Rate {m3/s}
  ,                                       !- Rated Heating Capacity {W}
  ,                                       !- Rated Heating Coefficient of Performance {W/W}
  20,                                     !- Rated Entering Water Temperature {C}
  20,                                     !- Rated Entering Air Dry-Bulb Temperature {C}
  1,                                      !- Ratio of Rated Heating Capacity to Rated Cooling Capacity
  {1c56ac72-9b14-49fe-9f3b-d5c9cc786b28}, !- Heating Capacity Curve Name
  {f644103d-0c10-4f49-ba7b-6097e532b0b6}; !- Heating Power Consumption Curve Name

OS:Curve:QuadLinear,
  {1c56ac72-9b14-49fe-9f3b-d5c9cc786b28}, !- Handle
  Curve Quad Linear 1,                    !- Name
  -5.50102734,                            !- Coefficient1 Constant
  -0.96688754,                            !- Coefficient2 w
  7.70755007,                             !- Coefficient3 x
  0.031928881,                            !- Coefficient4 y
  0.028112522,                            !- Coefficient5 z
  -100,                                   !- Minimum Value of w {BasedOnField A2}
  100,                                    !- Maximum Value of w {BasedOnField A2}
  -100,                                   !- Minimum Value of x {BasedOnField A3}
  100,                                    !- Maximum Value of x {BasedOnField A3}
  0,                                      !- Minimum Value of y {BasedOnField A4}
  100,                                    !- Maximum Value of y {BasedOnField A4}
  0,                                      !- Minimum Value of z {BasedOnField A5}
  100;                                    !- Maximum Value of z {BasedOnField A5}

OS:Curve:QuadLinear,
  {f644103d-0c10-4f49-ba7b-6097e532b0b6}, !- Handle
  HC Eq WAHP heatingPowerConsumptionCurve, !- Name
  -7.47517858,                            !- Coefficient1 Constant
  6.40876653,                             !- Coefficient2 w
  1.99711665,                             !- Coefficient3 x
  -0.050682973,                           !- Coefficient4 y
  0.011385145,                            !- Coefficient5 z
  -100,                                   !- Minimum Value of w {BasedOnField A2}
  100,                                    !- Maximum Value of w {BasedOnField A2}
  -100,                                   !- Minimum Value of x {BasedOnField A3}
  100,                                    !- Maximum Value of x {BasedOnField A3}
  0,                                      !- Minimum Value of y {BasedOnField A4}
  100,                                    !- Maximum Value of y {BasedOnField A4}
  0,                                      !- Minimum Value of z {BasedOnField A5}
  100;                                    !- Maximum Value of z {BasedOnField A5}

OS:Coil:Heating:Electric,
  {cdb5600f-c6fe-45f7-bda4-83d6c6391a11}, !- Handle
  Coil Heating Electric 1,                !- Name
  {882b93c0-d281-4489-8f22-bc75a9d62eb7}, !- Availability Schedule Name
  ,                                       !- Efficiency
  ,                                       !- Nominal Capacity {W}
  ,                                       !- Air Inlet Node Name
  ;                                       !- Air Outlet Node Name

OS:ZoneHVAC:WaterToAirHeatPump,
  {96b365c4-7cfc-4eda-8ab5-15d495c07abc}, !- Handle
  WAHP Eq,                                !- Name
  {882b93c0-d281-4489-8f22-bc75a9d62eb7}, !- Availability Schedule Name
  ,                                       !- Air Inlet Node Name
  ,                                       !- Air Outlet Node Name
  ,                                       !- Outdoor Air Mixer Name
  Autosize,                               !- Supply Air Flow Rate During Cooling Operation {m3/s}
  Autosize,                               !- Supply Air Flow Rate During Heating Operation {m3/s}
  autosize,                               !- Supply Air Flow Rate When No Cooling or Heating is Needed {m3/s}
  autosize,                               !- Outdoor Air Flow Rate During Cooling Operation {m3/s}
  autosize,                               !- Outdoor Air Flow Rate During Heating Operation {m3/s}
  Autosize,                               !- Outdoor Air Flow Rate When No Cooling or Heating is Needed {m3/s}
  {ed39fd56-9103-417c-8094-e262bfd58bc9}, !- Supply Air Fan Name
  {bae2f1f9-e6dd-4d52-853e-8a996ef09fd2}, !- Heating Coil Name
  {7ac39e05-b3b3-4498-ab86-7d0eee006d29}, !- Cooling Coil Name
  ,                                       !- Maximum Cycling Rate {cycles/hr}
  ,                                       !- Heat Pump Time Constant {s}
  ,                                       !- Fraction of On-Cycle Power Use
  ,                                       !- Heat Pump Fan Delay Time {s}
  {cdb5600f-c6fe-45f7-bda4-83d6c6391a11}, !- Supplemental Heating Coil Name
  Autosize,                               !- Maximum Supply Air Temperature from Supplemental Heater {C}
  ,                                       !- Maximum Outdoor Dry-Bulb Temperature for Supplemental Heater Operation {C}
  ,                                       !- Outdoor Dry-Bulb Temperature Sensor Node Name
  ,                                       !- Fan Placement
  ,                                       !- Supply Air Fan Operating Mode Schedule Name
  ;                                       !- Availability Manager List Name

OS:Fan:OnOff,
  {140e8a6b-77ea-444c-95cf-5d958a19e739}, !- Handle
  WAHP VsdEq Fan On Off,                  !- Name
  {882b93c0-d281-4489-8f22-bc75a9d62eb7}, !- Availability Schedule Name
  0.6,                                    !- Fan Total Efficiency
  300,                                    !- Pressure Rise {Pa}
  autosize,                               !- Maximum Flow Rate {m3/s}
  0.8,                                    !- Motor Efficiency
  1,                                      !- Motor In Airstream Fraction
  ,                                       !- Air Inlet Node Name
  ,                                       !- Air Outlet Node Name
  {d06e7052-50ee-4e19-b94b-8b56d0784669}, !- Fan Power Ratio Function of Speed Ratio Curve Name
  {05e330b0-bca5-4dda-9858-d05f58600c48}, !- Fan Efficiency Ratio Function of Speed Ratio Curve Name
  ;                                       !- End-Use Subcategory

OS:Curve:Exponent,
  {d06e7052-50ee-4e19-b94b-8b56d0784669}, !- Handle
  Fan On Off Power Curve 1,               !- Name
  1,                                      !- Coefficient1 Constant
  0,                                      !- Coefficient2 Constant
  0,                                      !- Coefficient3 Constant
  0,                                      !- Minimum Value of x
  1,                                      !- Maximum Value of x
  ,                                       !- Minimum Curve Output
  ,                                       !- Maximum Curve Output
  ,                                       !- Input Unit Type for X
  ;                                       !- Output Unit Type

OS:Curve:Cubic,
  {05e330b0-bca5-4dda-9858-d05f58600c48}, !- Handle
  Fan On Off Efficiency Curve 1,          !- Name
  1,                                      !- Coefficient1 Constant
  0,                                      !- Coefficient2 x
  0,                                      !- Coefficient3 x**2
  0,                                      !- Coefficient4 x**3
  0,                                      !- Minimum Value of x
  1;                                      !- Maximum Value of x

OS:Coil:Cooling:WaterToAirHeatPump:EquationFit,
  {cd996144-4778-43f0-87e8-262c0a560a95}, !- Handle
  CC Eq WAHP 1,                           !- Name
  ,                                       !- Water Inlet Node Name
  ,                                       !- Water Outlet Node Name
  ,                                       !- Air Inlet Node Name
  ,                                       !- Air Outlet Node Name
  ,                                       !- Rated Air Flow Rate {m3/s}
  ,                                       !- Rated Water Flow Rate {m3/s}
  ,                                       !- Rated Total Cooling Capacity {W}
  ,                                       !- Rated Sensible Cooling Capacity {W}
  ,                                       !- Rated Cooling Coefficient of Performance {W/W}
  30,                                     !- Rated Entering Water Temperature {C}
  27,                                     !- Rated Entering Air Dry-Bulb Temperature {C}
  19,                                     !- Rated Entering Air Wet-Bulb Temperature {C}
  {e1ae2a76-e688-46cd-951d-b3accd7c7bca}, !- Total Cooling Capacity Curve Name
  {e22c473b-3ddb-4e20-b0e5-e8581c2a05b4}, !- Sensible Cooling Capacity Curve Name
  {2abee678-212e-454b-be5f-8dd546ae8a64}, !- Cooling Power Consumption Curve Name
  1.5,                                    !- Nominal Time for Condensate Removal to Begin {s}
  0.02;                                   !- Ratio of Initial Moisture Evaporation Rate and Steady State Latent Capacity {dimensionless}

OS:Curve:QuadLinear,
  {e1ae2a76-e688-46cd-951d-b3accd7c7bca}, !- Handle
  TotCoolCapCurve 1,                      !- Name
  -0.68126221,                            !- Coefficient1 Constant
  1.99529297,                             !- Coefficient2 w
  -0.93611888,                            !- Coefficient3 x
  0.02081177,                             !- Coefficient4 y
  0.008438868,                            !- Coefficient5 z
  -100,                                   !- Minimum Value of w {BasedOnField A2}
  100,                                    !- Maximum Value of w {BasedOnField A2}
  -100,                                   !- Minimum Value of x {BasedOnField A3}
  100,                                    !- Maximum Value of x {BasedOnField A3}
  0,                                      !- Minimum Value of y {BasedOnField A4}
  100,                                    !- Maximum Value of y {BasedOnField A4}
  0,                                      !- Minimum Value of z {BasedOnField A5}
  100;                                    !- Maximum Value of z {BasedOnField A5}

OS:Curve:QuintLinear,
  {e22c473b-3ddb-4e20-b0e5-e8581c2a05b4}, !- Handle
  Curve Quint Linear 2,                   !- Name
  2.24209455,                             !- Coefficient1 Constant
  7.28913391,                             !- Coefficient2 v
  -9.06079896,                            !- Coefficient3 w
  -0.36729404,                            !- Coefficient4 x
  0.218826161,                            !- Coefficient5 y
  0.00901534,                             !- Coefficient6 z
  -100,                                   !- Minimum Value of v {BasedOnField A2}
  100,                                    !- Maximum Value of v {BasedOnField A2}
  -100,                                   !- Minimum Value of w {BasedOnField A2}
  100,                                    !- Maximum Value of w {BasedOnField A2}
  -100,                                   !- Minimum Value of x {BasedOnField A3}
  100,                                    !- Maximum Value of x {BasedOnField A3}
  0,                                      !- Minimum Value of y {BasedOnField A4}
  100,                                    !- Maximum Value of y {BasedOnField A4}
  0,                                      !- Minimum Value of z {BasedOnField A5}
  100;                                    !- Maximum Value of z {BasedOnField A5}

OS:Curve:QuadLinear,
  {2abee678-212e-454b-be5f-8dd546ae8a64}, !- Handle
  CC Eq WAHP coolingPowerConsumptionCurve 1, !- Name
  -3.20456384,                            !- Coefficient1 Constant
  0.47656454,                             !- Coefficient2 w
  3.16734236,                             !- Coefficient3 x
  0.10244637,                             !- Coefficient4 y
  -0.038132556,                           !- Coefficient5 z
  -100,                                   !- Minimum Value of w {BasedOnField A2}
  100,                                    !- Maximum Value of w {BasedOnField A2}
  -100,                                   !- Minimum Value of x {BasedOnField A3}
  100,                                    !- Maximum Value of x {BasedOnField A3}
  0,                                      !- Minimum Value of y {BasedOnField A4}
  100,                                    !- Maximum Value of y {BasedOnField A4}
  0,                                      !- Minimum Value of z {BasedOnField A5}
  100;                                    !- Maximum Value of z {BasedOnField A5}

OS:Coil:Heating:WaterToAirHeatPump:EquationFit,
  {26ecd4e4-1ae3-4165-a4e5-075a055b7a30}, !- Handle
  HC Eq WAHP 1,                           !- Name
  ,                                       !- Water Inlet Node Name
  ,                                       !- Water Outlet Node Name
  ,                                       !- Air Inlet Node Name
  ,                                       !- Air Outlet Node Name
  ,                                       !- Rated Air Flow Rate {m3/s}
  ,                                       !- Rated Water Flow Rate {m3/s}
  ,                                       !- Rated Heating Capacity {W}
  ,                                       !- Rated Heating Coefficient of Performance {W/W}
  20,                                     !- Rated Entering Water Temperature {C}
  20,                                     !- Rated Entering Air Dry-Bulb Temperature {C}
  1,                                      !- Ratio of Rated Heating Capacity to Rated Cooling Capacity
  {567f46ee-ec04-4e5b-b087-4611cdd9f616}, !- Heating Capacity Curve Name
  {cfce6f93-5047-4210-8099-08748354bc6a}; !- Heating Power Consumption Curve Name

OS:Curve:QuadLinear,
  {567f46ee-ec04-4e5b-b087-4611cdd9f616}, !- Handle
  Curve Quad Linear 2,                    !- Name
  -5.50102734,                            !- Coefficient1 Constant
  -0.96688754,                            !- Coefficient2 w
  7.70755007,                             !- Coefficient3 x
  0.031928881,                            !- Coefficient4 y
  0.028112522,                            !- Coefficient5 z
  -100,                                   !- Minimum Value of w {BasedOnField A2}
  100,                                    !- Maximum Value of w {BasedOnField A2}
  -100,                                   !- Minimum Value of x {BasedOnField A3}
  100,                                    !- Maximum Value of x {BasedOnField A3}
  0,                                      !- Minimum Value of y {BasedOnField A4}
  100,                                    !- Maximum Value of y {BasedOnField A4}
  0,                                      !- Minimum Value of z {BasedOnField A5}
  100;                                    !- Maximum Value of z {BasedOnField A5}

OS:Curve:QuadLinear,
  {cfce6f93-5047-4210-8099-08748354bc6a}, !- Handle
  HC Eq WAHP heatingPowerConsumptionCurve 1, !- Name
  -7.47517858,                            !- Coefficient1 Constant
  6.40876653,                             !- Coefficient2 w
  1.99711665,                             !- Coefficient3 x
  -0.050682973,                           !- Coefficient4 y
  0.011385145,                            !- Coefficient5 z
  -100,                                   !- Minimum Value of w {BasedOnField A2}
  100,                                    !- Maximum Value of w {BasedOnField A2}
  -100,                                   !- Minimum Value of x {BasedOnField A3}
  100,                                    !- Maximum Value of x {BasedOnField A3}
  0,                                      !- Minimum Value of y {BasedOnField A4}
  100,                                    !- Maximum Value of y {BasedOnField A4}
  0,                                      !- Minimum Value of z {BasedOnField A5}
  100;                                    !- Maximum Value of z {BasedOnField A5}

OS:Coil:Heating:Electric,
  {6f31e017-0573-46d8-a101-b383fddd9d49}, !- Handle
  Coil Heating Electric 2,                !- Name
  {882b93c0-d281-4489-8f22-bc75a9d62eb7}, !- Availability Schedule Name
  ,                                       !- Efficiency
  ,                                       !- Nominal Capacity {W}
  ,                                       !- Air Inlet Node Name
  ;                                       !- Air Outlet Node Name

OS:ZoneHVAC:WaterToAirHeatPump,
  {ec43b18f-1269-406b-88fb-769c4fea4bde}, !- Handle
  WAHP VsdEq,                             !- Name
  {882b93c0-d281-4489-8f22-bc75a9d62eb7}, !- Availability Schedule Name
  ,                                       !- Air Inlet Node Name
  ,                                       !- Air Outlet Node Name
  ,                                       !- Outdoor Air Mixer Name
  Autosize,                               !- Supply Air Flow Rate During Cooling Operation {m3/s}
  Autosize,                               !- Supply Air Flow Rate During Heating Operation {m3/s}
  autosize,                               !- Supply Air Flow Rate When No Cooling or Heating is Needed {m3/s}
  autosize,                               !- Outdoor Air Flow Rate During Cooling Operation {m3/s}
  autosize,                               !- Outdoor Air Flow Rate During Heating Operation {m3/s}
  Autosize,                               !- Outdoor Air Flow Rate When No Cooling or Heating is Needed {m3/s}
  {140e8a6b-77ea-444c-95cf-5d958a19e739}, !- Supply Air Fan Name
  {26ecd4e4-1ae3-4165-a4e5-075a055b7a30}, !- Heating Coil Name
  {cd996144-4778-43f0-87e8-262c0a560a95}, !- Cooling Coil Name
  ,                                       !- Maximum Cycling Rate {cycles/hr}
  ,                                       !- Heat Pump Time Constant {s}
  ,                                       !- Fraction of On-Cycle Power Use
  ,                                       !- Heat Pump Fan Delay Time {s}
  {6f31e017-0573-46d8-a101-b383fddd9d49}, !- Supplemental Heating Coil Name
  Autosize,                               !- Maximum Supply Air Temperature from Supplemental Heater {C}
  ,                                       !- Maximum Outdoor Dry-Bulb Temperature for Supplemental Heater Operation {C}
  ,                                       !- Outdoor Dry-Bulb Temperature Sensor Node Name
  ,                                       !- Fan Placement
  ,                                       !- Supply Air Fan Operating Mode Schedule Name
  ;                                       !- Availability Manager List Name

