
OS:Version,
  {da82353f-7f06-44d3-9003-9db5586aec1f}, !- Handle
  3.6.1;                                  !- Version Identifier

OS:Boiler:HotWater,
  {4b65bc89-fbb7-423b-8b56-bfe9ec5ebd7f}, !- Handle
  Boiler Hot Water 1,                     !- Name
  Propane,                                !- Fuel Type
  1,                                      !- Nominal Capacity {W}
  0.9,                                    !- Nominal Thermal Efficiency
  EnteringBoiler,                         !- Efficiency Curve Temperature Evaluation Variable
  {9f578c74-3ee0-4edc-9521-b8ae5fb65fe7}, !- Normalized Boiler Efficiency Curve Name
  3,                                      !- Design Water Flow Rate {m3/s}
  4,                                      !- Minimum Part Load Ratio
  5,                                      !- Maximum Part Load Ratio
  6,                                      !- Optimum Part Load Ratio
  ,                                       !- Boiler Water Inlet Node Name
  ,                                       !- Boiler Water Outlet Node Name
  7,                                      !- Water Outlet Upper Temperature Limit {C}
  LeavingSetpointModulated,               !- Boiler Flow Mode
  8,                                      !- Parasitic Electric Load {W}
  9,                                      !- Sizing Factor
  Test;                                   !- End-Use Subcategory

OS:Curve:Quadratic,
  {9f578c74-3ee0-4edc-9521-b8ae5fb65fe7}, !- Handle
  Curve Quadratic 1,                      !- Name
  0,                                      !- Coefficient1 Constant
  0,                                      !- Coefficient2 x
  1,                                      !- Coefficient3 x**2
  0,                                      !- Minimum Value of x
  1;                                      !- Maximum Value of x

