
OS:Version,
  {650d3160-f304-4fff-acb4-fe3359d11966}, !- Handle
  3.6.1;                                  !- Version Identifier

OS:AirLoopHVAC:UnitarySystem,
  {b2cb1195-5548-451a-95dd-1eed157ea0e9}, !- Handle
  Unitary CC Eq,                          !- Name
  Load,                                   !- Control Type
  ,                                       !- Controlling Zone or Thermostat Location
  None,                                   !- Dehumidification Control Type
  ,                                       !- Availability Schedule Name
  ,                                       !- Air Inlet Node Name
  ,                                       !- Air Outlet Node Name
  ,                                       !- Supply Fan Name
  ,                                       !- Fan Placement
  ,                                       !- Supply Air Fan Operating Mode Schedule Name
  ,                                       !- Heating Coil Name
  1,                                      !- DX Heating Coil Sizing Ratio
  {a30e3cc7-a8ee-427a-88c3-43e6194bbd40}, !- Cooling Coil Name
  No,                                     !- Use DOAS DX Cooling Coil
  2,                                      !- DOAS DX Cooling Coil Leaving Minimum Air Temperature {C}
  SensibleOnlyLoadControl,                !- Latent Load Control
  ,                                       !- Supplemental Heating Coil Name
  ,                                       !- Supply Air Flow Rate Method During Cooling Operation
  Autosize,                               !- Supply Air Flow Rate During Cooling Operation {m3/s}
  ,                                       !- Supply Air Flow Rate Per Floor Area During Cooling Operation {m3/s-m2}
  ,                                       !- Fraction of Autosized Design Cooling Supply Air Flow Rate
  ,                                       !- Design Supply Air Flow Rate Per Unit of Capacity During Cooling Operation {m3/s-W}
  ,                                       !- Supply Air Flow Rate Method During Heating Operation
  Autosize,                               !- Supply Air Flow Rate During Heating Operation {m3/s}
  ,                                       !- Supply Air Flow Rate Per Floor Area during Heating Operation {m3/s-m2}
  ,                                       !- Fraction of Autosized Design Heating Supply Air Flow Rate
  ,                                       !- Design Supply Air Flow Rate Per Unit of Capacity During Heating Operation {m3/s-W}
  ,                                       !- Supply Air Flow Rate Method When No Cooling or Heating is Required
  Autosize,                               !- Supply Air Flow Rate When No Cooling or Heating is Required {m3/s}
  ,                                       !- Supply Air Flow Rate Per Floor Area When No Cooling or Heating is Required {m3/s-m2}
  ,                                       !- Fraction of Autosized Design Cooling Supply Air Flow Rate When No Cooling or Heating is Required
  ,                                       !- Fraction of Autosized Design Heating Supply Air Flow Rate When No Cooling or Heating is Required
  ,                                       !- Design Supply Air Flow Rate Per Unit of Capacity During Cooling Operation When No Cooling or Heating is Required {m3/s-W}
  ,                                       !- Design Supply Air Flow Rate Per Unit of Capacity During Heating Operation When No Cooling or Heating is Required {m3/s-W}
  80,                                     !- Maximum Supply Air Temperature {C}
  21,                                     !- Maximum Outdoor Dry-Bulb Temperature for Supplemental Heater Operation {C}
  sensor,                                 !- Outdoor Dry-Bulb Temperature Sensor Node Name
  3.5,                                    !- Maximum Cycling Rate {cycles/hr}
  90,                                     !- Heat Pump Time Constant {s}
  0.05,                                   !- Fraction of On-Cycle Power Use
  120,                                    !- Heat Pump Fan Delay Time {s}
  2,                                      !- Ancilliary On-Cycle Electric Power {W}
  1;                                      !- Ancilliary Off-Cycle Electric Power {W}

OS:Coil:Cooling:WaterToAirHeatPump:EquationFit,
  {a30e3cc7-a8ee-427a-88c3-43e6194bbd40}, !- Handle
  CC Eq Unitary,                          !- Name
  ,                                       !- Water Inlet Node Name
  ,                                       !- Water Outlet Node Name
  ,                                       !- Air Inlet Node Name
  ,                                       !- Air Outlet Node Name
  ,                                       !- Rated Air Flow Rate {m3/s}
  ,                                       !- Rated Water Flow Rate {m3/s}
  ,                                       !- Rated Total Cooling Capacity {W}
  ,                                       !- Rated Sensible Cooling Capacity {W}
  ,                                       !- Rated Cooling Coefficient of Performance {W/W}
  30,                                     !- Rated Entering Water Temperature {C}
  27,                                     !- Rated Entering Air Dry-Bulb Temperature {C}
  19,                                     !- Rated Entering Air Wet-Bulb Temperature {C}
  {ff15d6b2-d307-4a81-bd8b-e57adacca359}, !- Total Cooling Capacity Curve Name
  {e2f49cb7-0f45-4b85-850b-c6748e65bcc6}, !- Sensible Cooling Capacity Curve Name
  {072ea031-8426-4b61-9c7c-0fe54983edc4}, !- Cooling Power Consumption Curve Name
  1.5,                                    !- Nominal Time for Condensate Removal to Begin {s}
  0.02;                                   !- Ratio of Initial Moisture Evaporation Rate and Steady State Latent Capacity {dimensionless}

OS:Curve:QuadLinear,
  {ff15d6b2-d307-4a81-bd8b-e57adacca359}, !- Handle
  TotCoolCapCurve,                        !- Name
  -0.68126221,                            !- Coefficient1 Constant
  1.99529297,                             !- Coefficient2 w
  -0.93611888,                            !- Coefficient3 x
  0.02081177,                             !- Coefficient4 y
  0.008438868,                            !- Coefficient5 z
  -100,                                   !- Minimum Value of w {BasedOnField A2}
  100,                                    !- Maximum Value of w {BasedOnField A2}
  -100,                                   !- Minimum Value of x {BasedOnField A3}
  100,                                    !- Maximum Value of x {BasedOnField A3}
  0,                                      !- Minimum Value of y {BasedOnField A4}
  100,                                    !- Maximum Value of y {BasedOnField A4}
  0,                                      !- Minimum Value of z {BasedOnField A5}
  100;                                    !- Maximum Value of z {BasedOnField A5}

OS:Curve:QuintLinear,
  {e2f49cb7-0f45-4b85-850b-c6748e65bcc6}, !- Handle
  Curve Quint Linear 1,                   !- Name
  2.24209455,                             !- Coefficient1 Constant
  7.28913391,                             !- Coefficient2 v
  -9.06079896,                            !- Coefficient3 w
  -0.36729404,                            !- Coefficient4 x
  0.218826161,                            !- Coefficient5 y
  0.00901534,                             !- Coefficient6 z
  -100,                                   !- Minimum Value of v {BasedOnField A2}
  100,                                    !- Maximum Value of v {BasedOnField A2}
  -100,                                   !- Minimum Value of w {BasedOnField A2}
  100,                                    !- Maximum Value of w {BasedOnField A2}
  -100,                                   !- Minimum Value of x {BasedOnField A3}
  100,                                    !- Maximum Value of x {BasedOnField A3}
  0,                                      !- Minimum Value of y {BasedOnField A4}
  100,                                    !- Maximum Value of y {BasedOnField A4}
  0,                                      !- Minimum Value of z {BasedOnField A5}
  100;                                    !- Maximum Value of z {BasedOnField A5}

OS:Curve:QuadLinear,
  {072ea031-8426-4b61-9c7c-0fe54983edc4}, !- Handle
  coolingPowerConsumptionCurve,           !- Name
  -3.20456384,                            !- Coefficient1 Constant
  0.47656454,                             !- Coefficient2 w
  3.16734236,                             !- Coefficient3 x
  0.10244637,                             !- Coefficient4 y
  -0.038132556,                           !- Coefficient5 z
  -100,                                   !- Minimum Value of w {BasedOnField A2}
  100,                                    !- Maximum Value of w {BasedOnField A2}
  -100,                                   !- Minimum Value of x {BasedOnField A3}
  100,                                    !- Maximum Value of x {BasedOnField A3}
  0,                                      !- Minimum Value of y {BasedOnField A4}
  100,                                    !- Maximum Value of y {BasedOnField A4}
  0,                                      !- Minimum Value of z {BasedOnField A5}
  100;                                    !- Maximum Value of z {BasedOnField A5}

OS:AirLoopHVAC:UnitarySystem,
  {6340d503-93e0-4c59-9b54-ae8a661c6a9f}, !- Handle
  Unitary HC Eq,                          !- Name
  Load,                                   !- Control Type
  ,                                       !- Controlling Zone or Thermostat Location
  None,                                   !- Dehumidification Control Type
  ,                                       !- Availability Schedule Name
  ,                                       !- Air Inlet Node Name
  ,                                       !- Air Outlet Node Name
  ,                                       !- Supply Fan Name
  ,                                       !- Fan Placement
  ,                                       !- Supply Air Fan Operating Mode Schedule Name
  {6cca56ef-68a2-4d5f-a087-eb7f7fe49b1e}, !- Heating Coil Name
  1,                                      !- DX Heating Coil Sizing Ratio
  ,                                       !- Cooling Coil Name
  No,                                     !- Use DOAS DX Cooling Coil
  2,                                      !- DOAS DX Cooling Coil Leaving Minimum Air Temperature {C}
  SensibleOnlyLoadControl,                !- Latent Load Control
  ,                                       !- Supplemental Heating Coil Name
  ,                                       !- Supply Air Flow Rate Method During Cooling Operation
  Autosize,                               !- Supply Air Flow Rate During Cooling Operation {m3/s}
  ,                                       !- Supply Air Flow Rate Per Floor Area During Cooling Operation {m3/s-m2}
  ,                                       !- Fraction of Autosized Design Cooling Supply Air Flow Rate
  ,                                       !- Design Supply Air Flow Rate Per Unit of Capacity During Cooling Operation {m3/s-W}
  ,                                       !- Supply Air Flow Rate Method During Heating Operation
  Autosize,                               !- Supply Air Flow Rate During Heating Operation {m3/s}
  ,                                       !- Supply Air Flow Rate Per Floor Area during Heating Operation {m3/s-m2}
  ,                                       !- Fraction of Autosized Design Heating Supply Air Flow Rate
  ,                                       !- Design Supply Air Flow Rate Per Unit of Capacity During Heating Operation {m3/s-W}
  ,                                       !- Supply Air Flow Rate Method When No Cooling or Heating is Required
  Autosize,                               !- Supply Air Flow Rate When No Cooling or Heating is Required {m3/s}
  ,                                       !- Supply Air Flow Rate Per Floor Area When No Cooling or Heating is Required {m3/s-m2}
  ,                                       !- Fraction of Autosized Design Cooling Supply Air Flow Rate When No Cooling or Heating is Required
  ,                                       !- Fraction of Autosized Design Heating Supply Air Flow Rate When No Cooling or Heating is Required
  ,                                       !- Design Supply Air Flow Rate Per Unit of Capacity During Cooling Operation When No Cooling or Heating is Required {m3/s-W}
  ,                                       !- Design Supply Air Flow Rate Per Unit of Capacity During Heating Operation When No Cooling or Heating is Required {m3/s-W}
  80,                                     !- Maximum Supply Air Temperature {C}
  21,                                     !- Maximum Outdoor Dry-Bulb Temperature for Supplemental Heater Operation {C}
  sensor,                                 !- Outdoor Dry-Bulb Temperature Sensor Node Name
  3.5,                                    !- Maximum Cycling Rate {cycles/hr}
  90,                                     !- Heat Pump Time Constant {s}
  0.05,                                   !- Fraction of On-Cycle Power Use
  120,                                    !- Heat Pump Fan Delay Time {s}
  2,                                      !- Ancilliary On-Cycle Electric Power {W}
  1;                                      !- Ancilliary Off-Cycle Electric Power {W}

OS:Coil:Heating:WaterToAirHeatPump:EquationFit,
  {6cca56ef-68a2-4d5f-a087-eb7f7fe49b1e}, !- Handle
  HC Eq Unitary,                          !- Name
  ,                                       !- Water Inlet Node Name
  ,                                       !- Water Outlet Node Name
  ,                                       !- Air Inlet Node Name
  ,                                       !- Air Outlet Node Name
  ,                                       !- Rated Air Flow Rate {m3/s}
  ,                                       !- Rated Water Flow Rate {m3/s}
  ,                                       !- Rated Heating Capacity {W}
  ,                                       !- Rated Heating Coefficient of Performance {W/W}
  20,                                     !- Rated Entering Water Temperature {C}
  20,                                     !- Rated Entering Air Dry-Bulb Temperature {C}
  1,                                      !- Ratio of Rated Heating Capacity to Rated Cooling Capacity
  {3643231d-ed48-4aa8-a063-a43e962ad54b}, !- Heating Capacity Curve Name
  {66cee10c-cca1-4fd6-b7bb-fce1f9c28df8}; !- Heating Power Consumption Curve Name

OS:Curve:QuadLinear,
  {3643231d-ed48-4aa8-a063-a43e962ad54b}, !- Handle
  Curve Quad Linear 1,                    !- Name
  -5.50102734,                            !- Coefficient1 Constant
  -0.96688754,                            !- Coefficient2 w
  7.70755007,                             !- Coefficient3 x
  0.031928881,                            !- Coefficient4 y
  0.028112522,                            !- Coefficient5 z
  -100,                                   !- Minimum Value of w {BasedOnField A2}
  100,                                    !- Maximum Value of w {BasedOnField A2}
  -100,                                   !- Minimum Value of x {BasedOnField A3}
  100,                                    !- Maximum Value of x {BasedOnField A3}
  0,                                      !- Minimum Value of y {BasedOnField A4}
  100,                                    !- Maximum Value of y {BasedOnField A4}
  0,                                      !- Minimum Value of z {BasedOnField A5}
  100;                                    !- Maximum Value of z {BasedOnField A5}

OS:Curve:QuadLinear,
  {66cee10c-cca1-4fd6-b7bb-fce1f9c28df8}, !- Handle
  heatingPowerConsumptionCurve,           !- Name
  -7.47517858,                            !- Coefficient1 Constant
  6.40876653,                             !- Coefficient2 w
  1.99711665,                             !- Coefficient3 x
  -0.050682973,                           !- Coefficient4 y
  0.011385145,                            !- Coefficient5 z
  -100,                                   !- Minimum Value of w {BasedOnField A2}
  100,                                    !- Maximum Value of w {BasedOnField A2}
  -100,                                   !- Minimum Value of x {BasedOnField A3}
  100,                                    !- Maximum Value of x {BasedOnField A3}
  0,                                      !- Minimum Value of y {BasedOnField A4}
  100,                                    !- Maximum Value of y {BasedOnField A4}
  0,                                      !- Minimum Value of z {BasedOnField A5}
  100;                                    !- Maximum Value of z {BasedOnField A5}

OS:AirLoopHVAC:UnitarySystem,
  {89d5398f-f426-471b-96cb-a15037a4e2e5}, !- Handle
  Unitary Both Eq,                        !- Name
  Load,                                   !- Control Type
  ,                                       !- Controlling Zone or Thermostat Location
  None,                                   !- Dehumidification Control Type
  ,                                       !- Availability Schedule Name
  ,                                       !- Air Inlet Node Name
  ,                                       !- Air Outlet Node Name
  ,                                       !- Supply Fan Name
  ,                                       !- Fan Placement
  ,                                       !- Supply Air Fan Operating Mode Schedule Name
  {3571ece2-40e0-4125-bc07-49a20c888525}, !- Heating Coil Name
  1,                                      !- DX Heating Coil Sizing Ratio
  {6d07d504-72ee-463c-829f-82468fe75c0d}, !- Cooling Coil Name
  No,                                     !- Use DOAS DX Cooling Coil
  2,                                      !- DOAS DX Cooling Coil Leaving Minimum Air Temperature {C}
  SensibleOnlyLoadControl,                !- Latent Load Control
  ,                                       !- Supplemental Heating Coil Name
  ,                                       !- Supply Air Flow Rate Method During Cooling Operation
  Autosize,                               !- Supply Air Flow Rate During Cooling Operation {m3/s}
  ,                                       !- Supply Air Flow Rate Per Floor Area During Cooling Operation {m3/s-m2}
  ,                                       !- Fraction of Autosized Design Cooling Supply Air Flow Rate
  ,                                       !- Design Supply Air Flow Rate Per Unit of Capacity During Cooling Operation {m3/s-W}
  ,                                       !- Supply Air Flow Rate Method During Heating Operation
  Autosize,                               !- Supply Air Flow Rate During Heating Operation {m3/s}
  ,                                       !- Supply Air Flow Rate Per Floor Area during Heating Operation {m3/s-m2}
  ,                                       !- Fraction of Autosized Design Heating Supply Air Flow Rate
  ,                                       !- Design Supply Air Flow Rate Per Unit of Capacity During Heating Operation {m3/s-W}
  ,                                       !- Supply Air Flow Rate Method When No Cooling or Heating is Required
  Autosize,                               !- Supply Air Flow Rate When No Cooling or Heating is Required {m3/s}
  ,                                       !- Supply Air Flow Rate Per Floor Area When No Cooling or Heating is Required {m3/s-m2}
  ,                                       !- Fraction of Autosized Design Cooling Supply Air Flow Rate When No Cooling or Heating is Required
  ,                                       !- Fraction of Autosized Design Heating Supply Air Flow Rate When No Cooling or Heating is Required
  ,                                       !- Design Supply Air Flow Rate Per Unit of Capacity During Cooling Operation When No Cooling or Heating is Required {m3/s-W}
  ,                                       !- Design Supply Air Flow Rate Per Unit of Capacity During Heating Operation When No Cooling or Heating is Required {m3/s-W}
  80,                                     !- Maximum Supply Air Temperature {C}
  21,                                     !- Maximum Outdoor Dry-Bulb Temperature for Supplemental Heater Operation {C}
  sensor,                                 !- Outdoor Dry-Bulb Temperature Sensor Node Name
  3.5,                                    !- Maximum Cycling Rate {cycles/hr}
  90,                                     !- Heat Pump Time Constant {s}
  0.05,                                   !- Fraction of On-Cycle Power Use
  120,                                    !- Heat Pump Fan Delay Time {s}
  2,                                      !- Ancilliary On-Cycle Electric Power {W}
  1;                                      !- Ancilliary Off-Cycle Electric Power {W}

OS:Coil:Cooling:WaterToAirHeatPump:EquationFit,
  {6d07d504-72ee-463c-829f-82468fe75c0d}, !- Handle
  CC Eq Unitary Both,                     !- Name
  ,                                       !- Water Inlet Node Name
  ,                                       !- Water Outlet Node Name
  ,                                       !- Air Inlet Node Name
  ,                                       !- Air Outlet Node Name
  ,                                       !- Rated Air Flow Rate {m3/s}
  ,                                       !- Rated Water Flow Rate {m3/s}
  ,                                       !- Rated Total Cooling Capacity {W}
  ,                                       !- Rated Sensible Cooling Capacity {W}
  ,                                       !- Rated Cooling Coefficient of Performance {W/W}
  30,                                     !- Rated Entering Water Temperature {C}
  27,                                     !- Rated Entering Air Dry-Bulb Temperature {C}
  19,                                     !- Rated Entering Air Wet-Bulb Temperature {C}
  {08877aee-f88a-43c2-8a6c-455181d20a28}, !- Total Cooling Capacity Curve Name
  {4e1de7f0-6243-4222-8e4f-4d04a1cbe601}, !- Sensible Cooling Capacity Curve Name
  {d89bb4ae-7852-4d8d-b7e3-653964ddab27}, !- Cooling Power Consumption Curve Name
  1.5,                                    !- Nominal Time for Condensate Removal to Begin {s}
  0.02;                                   !- Ratio of Initial Moisture Evaporation Rate and Steady State Latent Capacity {dimensionless}

OS:Curve:QuadLinear,
  {08877aee-f88a-43c2-8a6c-455181d20a28}, !- Handle
  TotCoolCapCurve 1,                      !- Name
  -0.68126221,                            !- Coefficient1 Constant
  1.99529297,                             !- Coefficient2 w
  -0.93611888,                            !- Coefficient3 x
  0.02081177,                             !- Coefficient4 y
  0.008438868,                            !- Coefficient5 z
  -100,                                   !- Minimum Value of w {BasedOnField A2}
  100,                                    !- Maximum Value of w {BasedOnField A2}
  -100,                                   !- Minimum Value of x {BasedOnField A3}
  100,                                    !- Maximum Value of x {BasedOnField A3}
  0,                                      !- Minimum Value of y {BasedOnField A4}
  100,                                    !- Maximum Value of y {BasedOnField A4}
  0,                                      !- Minimum Value of z {BasedOnField A5}
  100;                                    !- Maximum Value of z {BasedOnField A5}

OS:Curve:QuintLinear,
  {4e1de7f0-6243-4222-8e4f-4d04a1cbe601}, !- Handle
  Curve Quint Linear 2,                   !- Name
  2.24209455,                             !- Coefficient1 Constant
  7.28913391,                             !- Coefficient2 v
  -9.06079896,                            !- Coefficient3 w
  -0.36729404,                            !- Coefficient4 x
  0.218826161,                            !- Coefficient5 y
  0.00901534,                             !- Coefficient6 z
  -100,                                   !- Minimum Value of v {BasedOnField A2}
  100,                                    !- Maximum Value of v {BasedOnField A2}
  -100,                                   !- Minimum Value of w {BasedOnField A2}
  100,                                    !- Maximum Value of w {BasedOnField A2}
  -100,                                   !- Minimum Value of x {BasedOnField A3}
  100,                                    !- Maximum Value of x {BasedOnField A3}
  0,                                      !- Minimum Value of y {BasedOnField A4}
  100,                                    !- Maximum Value of y {BasedOnField A4}
  0,                                      !- Minimum Value of z {BasedOnField A5}
  100;                                    !- Maximum Value of z {BasedOnField A5}

OS:Curve:QuadLinear,
  {d89bb4ae-7852-4d8d-b7e3-653964ddab27}, !- Handle
  coolingPowerConsumptionCurve 1,         !- Name
  -3.20456384,                            !- Coefficient1 Constant
  0.47656454,                             !- Coefficient2 w
  3.16734236,                             !- Coefficient3 x
  0.10244637,                             !- Coefficient4 y
  -0.038132556,                           !- Coefficient5 z
  -100,                                   !- Minimum Value of w {BasedOnField A2}
  100,                                    !- Maximum Value of w {BasedOnField A2}
  -100,                                   !- Minimum Value of x {BasedOnField A3}
  100,                                    !- Maximum Value of x {BasedOnField A3}
  0,                                      !- Minimum Value of y {BasedOnField A4}
  100,                                    !- Maximum Value of y {BasedOnField A4}
  0,                                      !- Minimum Value of z {BasedOnField A5}
  100;                                    !- Maximum Value of z {BasedOnField A5}

OS:Coil:Heating:WaterToAirHeatPump:EquationFit,
  {3571ece2-40e0-4125-bc07-49a20c888525}, !- Handle
  HC Eq Unitary Both,                     !- Name
  ,                                       !- Water Inlet Node Name
  ,                                       !- Water Outlet Node Name
  ,                                       !- Air Inlet Node Name
  ,                                       !- Air Outlet Node Name
  ,                                       !- Rated Air Flow Rate {m3/s}
  ,                                       !- Rated Water Flow Rate {m3/s}
  ,                                       !- Rated Heating Capacity {W}
  ,                                       !- Rated Heating Coefficient of Performance {W/W}
  20,                                     !- Rated Entering Water Temperature {C}
  20,                                     !- Rated Entering Air Dry-Bulb Temperature {C}
  1,                                      !- Ratio of Rated Heating Capacity to Rated Cooling Capacity
  {90712bba-7681-4baa-a924-a94c9cd7ba0c}, !- Heating Capacity Curve Name
  {bd31db4a-2068-4f10-a4bd-9d3235ea8f3d}; !- Heating Power Consumption Curve Name

OS:Curve:QuadLinear,
  {90712bba-7681-4baa-a924-a94c9cd7ba0c}, !- Handle
  Curve Quad Linear 2,                    !- Name
  -5.50102734,                            !- Coefficient1 Constant
  -0.96688754,                            !- Coefficient2 w
  7.70755007,                             !- Coefficient3 x
  0.031928881,                            !- Coefficient4 y
  0.028112522,                            !- Coefficient5 z
  -100,                                   !- Minimum Value of w {BasedOnField A2}
  100,                                    !- Maximum Value of w {BasedOnField A2}
  -100,                                   !- Minimum Value of x {BasedOnField A3}
  100,                                    !- Maximum Value of x {BasedOnField A3}
  0,                                      !- Minimum Value of y {BasedOnField A4}
  100,                                    !- Maximum Value of y {BasedOnField A4}
  0,                                      !- Minimum Value of z {BasedOnField A5}
  100;                                    !- Maximum Value of z {BasedOnField A5}

OS:Curve:QuadLinear,
  {bd31db4a-2068-4f10-a4bd-9d3235ea8f3d}, !- Handle
  heatingPowerConsumptionCurve 1,         !- Name
  -7.47517858,                            !- Coefficient1 Constant
  6.40876653,                             !- Coefficient2 w
  1.99711665,                             !- Coefficient3 x
  -0.050682973,                           !- Coefficient4 y
  0.011385145,                            !- Coefficient5 z
  -100,                                   !- Minimum Value of w {BasedOnField A2}
  100,                                    !- Maximum Value of w {BasedOnField A2}
  -100,                                   !- Minimum Value of x {BasedOnField A3}
  100,                                    !- Maximum Value of x {BasedOnField A3}
  0,                                      !- Minimum Value of y {BasedOnField A4}
  100,                                    !- Maximum Value of y {BasedOnField A4}
  0,                                      !- Minimum Value of z {BasedOnField A5}
  100;                                    !- Maximum Value of z {BasedOnField A5}

