
OS:Version,
  {6f99e915-0dea-4dbe-96bd-3b7234a03c18}, !- Handle
  3.6.1;                                  !- Version Identifier

OS:AirLoopHVAC:UnitarySystem,
  {f3f3c3bf-3329-40f8-9123-5215c701ef2b}, !- Handle
  Default - add_heating_coil,             !- Name
  Load,                                   !- Control Type
  ,                                       !- Controlling Zone or Thermostat Location
  None,                                   !- Dehumidification Control Type
  ,                                       !- Availability Schedule Name
  ,                                       !- Air Inlet Node Name
  ,                                       !- Air Outlet Node Name
  ,                                       !- Supply Fan Name
  ,                                       !- Fan Placement
  ,                                       !- Supply Air Fan Operating Mode Schedule Name
  {d6a209af-209d-471c-a4ea-71ab99d79d3f}, !- Heating Coil Name
  1,                                      !- DX Heating Coil Sizing Ratio
  ,                                       !- Cooling Coil Name
  No,                                     !- Use DOAS DX Cooling Coil
  2,                                      !- DOAS DX Cooling Coil Leaving Minimum Air Temperature {C}
  SensibleOnlyLoadControl,                !- Latent Load Control
  ,                                       !- Supplemental Heating Coil Name
  ,                                       !- Supply Air Flow Rate Method During Cooling Operation
  Autosize,                               !- Supply Air Flow Rate During Cooling Operation {m3/s}
  ,                                       !- Supply Air Flow Rate Per Floor Area During Cooling Operation {m3/s-m2}
  ,                                       !- Fraction of Autosized Design Cooling Supply Air Flow Rate
  ,                                       !- Design Supply Air Flow Rate Per Unit of Capacity During Cooling Operation {m3/s-W}
  ,                                       !- Supply Air Flow Rate Method During Heating Operation
  Autosize,                               !- Supply Air Flow Rate During Heating Operation {m3/s}
  ,                                       !- Supply Air Flow Rate Per Floor Area during Heating Operation {m3/s-m2}
  ,                                       !- Fraction of Autosized Design Heating Supply Air Flow Rate
  ,                                       !- Design Supply Air Flow Rate Per Unit of Capacity During Heating Operation {m3/s-W}
  ,                                       !- Supply Air Flow Rate Method When No Cooling or Heating is Required
  Autosize,                               !- Supply Air Flow Rate When No Cooling or Heating is Required {m3/s}
  ,                                       !- Supply Air Flow Rate Per Floor Area When No Cooling or Heating is Required {m3/s-m2}
  ,                                       !- Fraction of Autosized Design Cooling Supply Air Flow Rate When No Cooling or Heating is Required
  ,                                       !- Fraction of Autosized Design Heating Supply Air Flow Rate When No Cooling or Heating is Required
  ,                                       !- Design Supply Air Flow Rate Per Unit of Capacity During Cooling Operation When No Cooling or Heating is Required {m3/s-W}
  ,                                       !- Design Supply Air Flow Rate Per Unit of Capacity During Heating Operation When No Cooling or Heating is Required {m3/s-W}
  80,                                     !- Maximum Supply Air Temperature {C}
  21,                                     !- Maximum Outdoor Dry-Bulb Temperature for Supplemental Heater Operation {C}
  ,                                       !- Outdoor Dry-Bulb Temperature Sensor Node Name
  2.5,                                    !- Maximum Cycling Rate {cycles/hr}
  60,                                     !- Heat Pump Time Constant {s}
  0.01,                                   !- Fraction of On-Cycle Power Use
  60,                                     !- Heat Pump Fan Delay Time {s}
  0,                                      !- Ancilliary On-Cycle Electric Power {W}
  0;                                      !- Ancilliary Off-Cycle Electric Power {W}

OS:AirLoopHVAC:UnitarySystem,
  {be0b4235-62b4-4df8-a51b-e1d49176e17d}, !- Handle
  Default - add_cooling_coil,             !- Name
  Load,                                   !- Control Type
  ,                                       !- Controlling Zone or Thermostat Location
  None,                                   !- Dehumidification Control Type
  ,                                       !- Availability Schedule Name
  ,                                       !- Air Inlet Node Name
  ,                                       !- Air Outlet Node Name
  ,                                       !- Supply Fan Name
  ,                                       !- Fan Placement
  ,                                       !- Supply Air Fan Operating Mode Schedule Name
  ,                                       !- Heating Coil Name
  1,                                      !- DX Heating Coil Sizing Ratio
  {bb05defc-c2ad-4aad-b7fb-93b0fa1b50ce}, !- Cooling Coil Name
  No,                                     !- Use DOAS DX Cooling Coil
  2,                                      !- DOAS DX Cooling Coil Leaving Minimum Air Temperature {C}
  SensibleOnlyLoadControl,                !- Latent Load Control
  ,                                       !- Supplemental Heating Coil Name
  ,                                       !- Supply Air Flow Rate Method During Cooling Operation
  Autosize,                               !- Supply Air Flow Rate During Cooling Operation {m3/s}
  ,                                       !- Supply Air Flow Rate Per Floor Area During Cooling Operation {m3/s-m2}
  ,                                       !- Fraction of Autosized Design Cooling Supply Air Flow Rate
  ,                                       !- Design Supply Air Flow Rate Per Unit of Capacity During Cooling Operation {m3/s-W}
  ,                                       !- Supply Air Flow Rate Method During Heating Operation
  Autosize,                               !- Supply Air Flow Rate During Heating Operation {m3/s}
  ,                                       !- Supply Air Flow Rate Per Floor Area during Heating Operation {m3/s-m2}
  ,                                       !- Fraction of Autosized Design Heating Supply Air Flow Rate
  ,                                       !- Design Supply Air Flow Rate Per Unit of Capacity During Heating Operation {m3/s-W}
  ,                                       !- Supply Air Flow Rate Method When No Cooling or Heating is Required
  Autosize,                               !- Supply Air Flow Rate When No Cooling or Heating is Required {m3/s}
  ,                                       !- Supply Air Flow Rate Per Floor Area When No Cooling or Heating is Required {m3/s-m2}
  ,                                       !- Fraction of Autosized Design Cooling Supply Air Flow Rate When No Cooling or Heating is Required
  ,                                       !- Fraction of Autosized Design Heating Supply Air Flow Rate When No Cooling or Heating is Required
  ,                                       !- Design Supply Air Flow Rate Per Unit of Capacity During Cooling Operation When No Cooling or Heating is Required {m3/s-W}
  ,                                       !- Design Supply Air Flow Rate Per Unit of Capacity During Heating Operation When No Cooling or Heating is Required {m3/s-W}
  80,                                     !- Maximum Supply Air Temperature {C}
  21,                                     !- Maximum Outdoor Dry-Bulb Temperature for Supplemental Heater Operation {C}
  ,                                       !- Outdoor Dry-Bulb Temperature Sensor Node Name
  2.5,                                    !- Maximum Cycling Rate {cycles/hr}
  60,                                     !- Heat Pump Time Constant {s}
  0.01,                                   !- Fraction of On-Cycle Power Use
  60,                                     !- Heat Pump Fan Delay Time {s}
  0,                                      !- Ancilliary On-Cycle Electric Power {W}
  0;                                      !- Ancilliary Off-Cycle Electric Power {W}

OS:AirLoopHVAC:UnitarySystem,
  {72536bc6-9c33-45c4-9648-14117e0d545a}, !- Handle
  Default - None,                         !- Name
  Load,                                   !- Control Type
  ,                                       !- Controlling Zone or Thermostat Location
  None,                                   !- Dehumidification Control Type
  ,                                       !- Availability Schedule Name
  ,                                       !- Air Inlet Node Name
  ,                                       !- Air Outlet Node Name
  ,                                       !- Supply Fan Name
  ,                                       !- Fan Placement
  ,                                       !- Supply Air Fan Operating Mode Schedule Name
  ,                                       !- Heating Coil Name
  1,                                      !- DX Heating Coil Sizing Ratio
  ,                                       !- Cooling Coil Name
  No,                                     !- Use DOAS DX Cooling Coil
  2,                                      !- DOAS DX Cooling Coil Leaving Minimum Air Temperature {C}
  SensibleOnlyLoadControl,                !- Latent Load Control
  ,                                       !- Supplemental Heating Coil Name
  ,                                       !- Supply Air Flow Rate Method During Cooling Operation
  Autosize,                               !- Supply Air Flow Rate During Cooling Operation {m3/s}
  ,                                       !- Supply Air Flow Rate Per Floor Area During Cooling Operation {m3/s-m2}
  ,                                       !- Fraction of Autosized Design Cooling Supply Air Flow Rate
  ,                                       !- Design Supply Air Flow Rate Per Unit of Capacity During Cooling Operation {m3/s-W}
  ,                                       !- Supply Air Flow Rate Method During Heating Operation
  Autosize,                               !- Supply Air Flow Rate During Heating Operation {m3/s}
  ,                                       !- Supply Air Flow Rate Per Floor Area during Heating Operation {m3/s-m2}
  ,                                       !- Fraction of Autosized Design Heating Supply Air Flow Rate
  ,                                       !- Design Supply Air Flow Rate Per Unit of Capacity During Heating Operation {m3/s-W}
  ,                                       !- Supply Air Flow Rate Method When No Cooling or Heating is Required
  Autosize,                               !- Supply Air Flow Rate When No Cooling or Heating is Required {m3/s}
  ,                                       !- Supply Air Flow Rate Per Floor Area When No Cooling or Heating is Required {m3/s-m2}
  ,                                       !- Fraction of Autosized Design Cooling Supply Air Flow Rate When No Cooling or Heating is Required
  ,                                       !- Fraction of Autosized Design Heating Supply Air Flow Rate When No Cooling or Heating is Required
  ,                                       !- Design Supply Air Flow Rate Per Unit of Capacity During Cooling Operation When No Cooling or Heating is Required {m3/s-W}
  ,                                       !- Design Supply Air Flow Rate Per Unit of Capacity During Heating Operation When No Cooling or Heating is Required {m3/s-W}
  80,                                     !- Maximum Supply Air Temperature {C}
  21,                                     !- Maximum Outdoor Dry-Bulb Temperature for Supplemental Heater Operation {C}
  ,                                       !- Outdoor Dry-Bulb Temperature Sensor Node Name
  2.5,                                    !- Maximum Cycling Rate {cycles/hr}
  60,                                     !- Heat Pump Time Constant {s}
  0.01,                                   !- Fraction of On-Cycle Power Use
  60,                                     !- Heat Pump Fan Delay Time {s}
  0,                                      !- Ancilliary On-Cycle Electric Power {W}
  0;                                      !- Ancilliary Off-Cycle Electric Power {W}

OS:Coil:Cooling:DX:SingleSpeed,
  {bb05defc-c2ad-4aad-b7fb-93b0fa1b50ce}, !- Handle
  Coil Cooling DX Single Speed 1,         !- Name
  {d9b16da6-9221-4d9e-8d71-0f29546866be}, !- Availability Schedule Name
  autosize,                               !- Rated Total Cooling Capacity {W}
  autosize,                               !- Rated Sensible Heat Ratio
  3,                                      !- Rated COP {W/W}
  autosize,                               !- Rated Air Flow Rate {m3/s}
  773.3,                                  !- Rated Evaporator Fan Power Per Volume Flow Rate 2017 {W/(m3/s)}
  934.4,                                  !- Rated Evaporator Fan Power Per Volume Flow Rate 2023 {W/(m3/s)}
  ,                                       !- Air Inlet Node Name
  ,                                       !- Air Outlet Node Name
  {de8d266b-78ba-4848-a454-b96278b6c40d}, !- Total Cooling Capacity Function of Temperature Curve Name
  {057a4af8-88a6-42e9-86e1-0f819a786b0b}, !- Total Cooling Capacity Function of Flow Fraction Curve Name
  {0f22f79d-d2ce-4c53-a45c-3cbcca8fe6e4}, !- Energy Input Ratio Function of Temperature Curve Name
  {1cb80fcb-2950-4157-9d46-4ea1fc8e7f2b}, !- Energy Input Ratio Function of Flow Fraction Curve Name
  {43556f19-7e35-4287-90a7-2bf9054f0a46}, !- Part Load Fraction Correlation Curve Name
  -25,                                    !- Minimum Outdoor Dry-Bulb Temperature for Compressor Operation {C}
  0,                                      !- Nominal Time for Condensate Removal to Begin {s}
  0,                                      !- Ratio of Initial Moisture Evaporation Rate and Steady State Latent Capacity {dimensionless}
  0,                                      !- Maximum Cycling Rate {cycles/hr}
  0,                                      !- Latent Capacity Time Constant {s}
  ,                                       !- Condenser Air Inlet Node Name
  AirCooled,                              !- Condenser Type
  0.9,                                    !- Evaporative Condenser Effectiveness {dimensionless}
  autosize,                               !- Evaporative Condenser Air Flow Rate {m3/s}
  autosize,                               !- Evaporative Condenser Pump Rated Power Consumption {W}
  0,                                      !- Crankcase Heater Capacity {W}
  10,                                     !- Maximum Outdoor Dry-Bulb Temperature for Crankcase Heater Operation {C}
  ,                                       !- Supply Water Storage Tank Name
  ,                                       !- Condensate Collection Water Storage Tank Name
  0,                                      !- Basin Heater Capacity {W/K}
  2;                                      !- Basin Heater Setpoint Temperature {C}

OS:Curve:Biquadratic,
  {de8d266b-78ba-4848-a454-b96278b6c40d}, !- Handle
  Curve Biquadratic 1,                    !- Name
  0.942587793,                            !- Coefficient1 Constant
  0.009543347,                            !- Coefficient2 x
  0.00068377,                             !- Coefficient3 x**2
  -0.011042676,                           !- Coefficient4 y
  5.249e-06,                              !- Coefficient5 y**2
  -9.72e-06,                              !- Coefficient6 x*y
  17,                                     !- Minimum Value of x
  22,                                     !- Maximum Value of x
  13,                                     !- Minimum Value of y
  46;                                     !- Maximum Value of y

OS:Curve:Quadratic,
  {057a4af8-88a6-42e9-86e1-0f819a786b0b}, !- Handle
  Curve Quadratic 1,                      !- Name
  0.8,                                    !- Coefficient1 Constant
  0.2,                                    !- Coefficient2 x
  0,                                      !- Coefficient3 x**2
  0.5,                                    !- Minimum Value of x
  1.5;                                    !- Maximum Value of x

OS:Curve:Biquadratic,
  {0f22f79d-d2ce-4c53-a45c-3cbcca8fe6e4}, !- Handle
  Curve Biquadratic 2,                    !- Name
  0.342414409,                            !- Coefficient1 Constant
  0.034885008,                            !- Coefficient2 x
  -0.0006237,                             !- Coefficient3 x**2
  0.004977216,                            !- Coefficient4 y
  0.000437951,                            !- Coefficient5 y**2
  -0.000728028,                           !- Coefficient6 x*y
  17,                                     !- Minimum Value of x
  22,                                     !- Maximum Value of x
  13,                                     !- Minimum Value of y
  46;                                     !- Maximum Value of y

OS:Curve:Quadratic,
  {1cb80fcb-2950-4157-9d46-4ea1fc8e7f2b}, !- Handle
  Curve Quadratic 2,                      !- Name
  1.1552,                                 !- Coefficient1 Constant
  -0.1808,                                !- Coefficient2 x
  0.0256,                                 !- Coefficient3 x**2
  0.5,                                    !- Minimum Value of x
  1.5;                                    !- Maximum Value of x

OS:Curve:Quadratic,
  {43556f19-7e35-4287-90a7-2bf9054f0a46}, !- Handle
  Curve Quadratic 3,                      !- Name
  0.85,                                   !- Coefficient1 Constant
  0.15,                                   !- Coefficient2 x
  0,                                      !- Coefficient3 x**2
  0,                                      !- Minimum Value of x
  1;                                      !- Maximum Value of x

OS:Schedule:Constant,
  {d9b16da6-9221-4d9e-8d71-0f29546866be}, !- Handle
  Always On Discrete,                     !- Name
  {f5380b2f-2236-4498-afe8-a744f74e129b}, !- Schedule Type Limits Name
  1;                                      !- Value

OS:ScheduleTypeLimits,
  {f5380b2f-2236-4498-afe8-a744f74e129b}, !- Handle
  OnOff,                                  !- Name
  0,                                      !- Lower Limit Value
  1,                                      !- Upper Limit Value
  Discrete,                               !- Numeric Type
  Availability;                           !- Unit Type

OS:Coil:Heating:DX:SingleSpeed,
  {d6a209af-209d-471c-a4ea-71ab99d79d3f}, !- Handle
  Coil Heating DX Single Speed 1,         !- Name
  {d9b16da6-9221-4d9e-8d71-0f29546866be}, !- Availability Schedule Name
  Autosize,                               !- Rated Total Heating Capacity {W}
  5,                                      !- Rated COP {W/W}
  Autosize,                               !- Rated Air Flow Rate {m3/s}
  773.3,                                  !- Rated Supply Fan Power Per Volume Flow Rate 2017 {W/(m3/s)}
  934.4,                                  !- Rated Supply Fan Power Per Volume Flow Rate 2023 {W/(m3/s)}
  ,                                       !- Air Inlet Node Name
  ,                                       !- Air Outlet Node Name
  {8ab033a4-9daf-49b6-aa94-c35f67f0104d}, !- Total Heating Capacity Function of Temperature Curve Name
  {5ba05bcf-e2e8-4a39-9c2b-549daed55da8}, !- Total Heating Capacity Function of Flow Fraction Curve Name
  {6e54493e-45e7-41db-a31e-7a10dc13a23e}, !- Energy Input Ratio Function of Temperature Curve Name
  {188e8017-d722-4d68-be85-dcc41e11b0ef}, !- Energy Input Ratio Function of Flow Fraction Curve Name
  {9870c076-04bc-4c08-aec7-6bd71f17a9cf}, !- Part Load Fraction Correlation Curve Name
  ,                                       !- Defrost Energy Input Ratio Function of Temperature Curve Name
  ,                                       !- Minimum Outdoor Dry-Bulb Temperature for Compressor Operation {C}
  ,                                       !- Maximum Outdoor Dry-Bulb Temperature for Defrost Operation {C}
  ,                                       !- Crankcase Heater Capacity {W}
  ,                                       !- Maximum Outdoor Dry-Bulb Temperature for Crankcase Heater Operation {C}
  Resistive,                              !- Defrost Strategy
  Timed,                                  !- Defrost Control
  0.166667,                               !- Defrost Time Period Fraction
  2000;                                   !- Resistive Defrost Heater Capacity {W}

OS:Curve:Cubic,
  {8ab033a4-9daf-49b6-aa94-c35f67f0104d}, !- Handle
  Curve Cubic 1,                          !- Name
  0.758746,                               !- Coefficient1 Constant
  0.027626,                               !- Coefficient2 x
  0.000148716,                            !- Coefficient3 x**2
  3.4992e-06,                             !- Coefficient4 x**3
  -20,                                    !- Minimum Value of x
  20;                                     !- Maximum Value of x

OS:Curve:Cubic,
  {5ba05bcf-e2e8-4a39-9c2b-549daed55da8}, !- Handle
  Curve Cubic 2,                          !- Name
  0.84,                                   !- Coefficient1 Constant
  0.16,                                   !- Coefficient2 x
  0,                                      !- Coefficient3 x**2
  0,                                      !- Coefficient4 x**3
  0.5,                                    !- Minimum Value of x
  1.5;                                    !- Maximum Value of x

OS:Curve:Cubic,
  {6e54493e-45e7-41db-a31e-7a10dc13a23e}, !- Handle
  Curve Cubic 3,                          !- Name
  1.19248,                                !- Coefficient1 Constant
  -0.0300438,                             !- Coefficient2 x
  0.00103745,                             !- Coefficient3 x**2
  -2.3328e-05,                            !- Coefficient4 x**3
  -20,                                    !- Minimum Value of x
  20;                                     !- Maximum Value of x

OS:Curve:Quadratic,
  {188e8017-d722-4d68-be85-dcc41e11b0ef}, !- Handle
  Curve Quadratic 4,                      !- Name
  1.3824,                                 !- Coefficient1 Constant
  -0.4336,                                !- Coefficient2 x
  0.0512,                                 !- Coefficient3 x**2
  0,                                      !- Minimum Value of x
  1;                                      !- Maximum Value of x

OS:Curve:Quadratic,
  {9870c076-04bc-4c08-aec7-6bd71f17a9cf}, !- Handle
  Curve Quadratic 5,                      !- Name
  0.75,                                   !- Coefficient1 Constant
  0.25,                                   !- Coefficient2 x
  0,                                      !- Coefficient3 x**2
  0,                                      !- Minimum Value of x
  1;                                      !- Maximum Value of x

