
OS:Version,
  {48cddda0-ed72-47c5-9af3-31491e830521}, !- Handle
  3.6.1;                                  !- Version Identifier

OS:Coil:Cooling:WaterToAirHeatPump:EquationFit,
  {279f7c4c-8bf5-457b-b0d0-8d3a54e41d30}, !- Handle
  CC Eq Solo,                             !- Name
  ,                                       !- Water Inlet Node Name
  ,                                       !- Water Outlet Node Name
  ,                                       !- Air Inlet Node Name
  ,                                       !- Air Outlet Node Name
  ,                                       !- Rated Air Flow Rate {m3/s}
  ,                                       !- Rated Water Flow Rate {m3/s}
  ,                                       !- Rated Total Cooling Capacity {W}
  ,                                       !- Rated Sensible Cooling Capacity {W}
  ,                                       !- Rated Cooling Coefficient of Performance {W/W}
  30,                                     !- Rated Entering Water Temperature {C}
  27,                                     !- Rated Entering Air Dry-Bulb Temperature {C}
  19,                                     !- Rated Entering Air Wet-Bulb Temperature {C}
  {6024e4ec-5b74-4a5d-96b4-9257e4fefe9f}, !- Total Cooling Capacity Curve Name
  {7845133b-1e0f-4261-b52d-aeb1477e31c4}, !- Sensible Cooling Capacity Curve Name
  {c3f82912-7caa-4ff2-8c86-402e0d8fd4e1}, !- Cooling Power Consumption Curve Name
  1.5,                                    !- Nominal Time for Condensate Removal to Begin {s}
  0.02;                                   !- Ratio of Initial Moisture Evaporation Rate and Steady State Latent Capacity {dimensionless}

OS:Curve:QuadLinear,
  {6024e4ec-5b74-4a5d-96b4-9257e4fefe9f}, !- Handle
  TotCoolCapCurve,                        !- Name
  -0.68126221,                            !- Coefficient1 Constant
  1.99529297,                             !- Coefficient2 w
  -0.93611888,                            !- Coefficient3 x
  0.02081177,                             !- Coefficient4 y
  0.008438868,                            !- Coefficient5 z
  -100,                                   !- Minimum Value of w {BasedOnField A2}
  100,                                    !- Maximum Value of w {BasedOnField A2}
  -100,                                   !- Minimum Value of x {BasedOnField A3}
  100,                                    !- Maximum Value of x {BasedOnField A3}
  0,                                      !- Minimum Value of y {BasedOnField A4}
  100,                                    !- Maximum Value of y {BasedOnField A4}
  0,                                      !- Minimum Value of z {BasedOnField A5}
  100;                                    !- Maximum Value of z {BasedOnField A5}

OS:Curve:QuintLinear,
  {7845133b-1e0f-4261-b52d-aeb1477e31c4}, !- Handle
  Curve Quint Linear 1,                   !- Name
  2.24209455,                             !- Coefficient1 Constant
  7.28913391,                             !- Coefficient2 v
  -9.06079896,                            !- Coefficient3 w
  -0.36729404,                            !- Coefficient4 x
  0.218826161,                            !- Coefficient5 y
  0.00901534,                             !- Coefficient6 z
  -100,                                   !- Minimum Value of v {BasedOnField A2}
  100,                                    !- Maximum Value of v {BasedOnField A2}
  -100,                                   !- Minimum Value of w {BasedOnField A2}
  100,                                    !- Maximum Value of w {BasedOnField A2}
  -100,                                   !- Minimum Value of x {BasedOnField A3}
  100,                                    !- Maximum Value of x {BasedOnField A3}
  0,                                      !- Minimum Value of y {BasedOnField A4}
  100,                                    !- Maximum Value of y {BasedOnField A4}
  0,                                      !- Minimum Value of z {BasedOnField A5}
  100;                                    !- Maximum Value of z {BasedOnField A5}

OS:Curve:QuadLinear,
  {c3f82912-7caa-4ff2-8c86-402e0d8fd4e1}, !- Handle
  coolingPowerConsumptionCurve,           !- Name
  -3.20456384,                            !- Coefficient1 Constant
  0.47656454,                             !- Coefficient2 w
  3.16734236,                             !- Coefficient3 x
  0.10244637,                             !- Coefficient4 y
  -0.038132556,                           !- Coefficient5 z
  -100,                                   !- Minimum Value of w {BasedOnField A2}
  100,                                    !- Maximum Value of w {BasedOnField A2}
  -100,                                   !- Minimum Value of x {BasedOnField A3}
  100,                                    !- Maximum Value of x {BasedOnField A3}
  0,                                      !- Minimum Value of y {BasedOnField A4}
  100,                                    !- Maximum Value of y {BasedOnField A4}
  0,                                      !- Minimum Value of z {BasedOnField A5}
  100;                                    !- Maximum Value of z {BasedOnField A5}

OS:Coil:Cooling:WaterToAirHeatPump:VariableSpeedEquationFit,
  {c606ad07-88e7-4d79-93a5-1e5488bd6040}, !- Handle
  CC VsdEq Solo,                          !- Name
  ,                                       !- Water-to-Refrigerant HX Water Inlet Node Name
  ,                                       !- Water-to-Refrigerant HX Water Outlet Node Name
  ,                                       !- Indoor Air Inlet Node Name
  ,                                       !- Indoor Air Outlet Node Name
  1,                                      !- Nominal Speed Level {dimensionless}
  autosize,                               !- Gross Rated Total Cooling Capacity At Selected Nominal Speed Level {W}
  autosize,                               !- Rated Air Flow Rate At Selected Nominal Speed Level {m3/s}
  autosize,                               !- Rated Water Flow Rate At Selected Nominal Speed Level {m3/s}
  0,                                      !- Nominal Time for Condensate to Begin Leaving the Coil {s}
  0.02,                                   !- Initial Moisture Evaporation Rate Divided by Steady-State AC Latent Capacity {dimensionless}
  Yes,                                    !- Use Hot Gas Reheat
  {6399f8c9-c652-4445-b99c-aea877b57252}, !- Energy Part Load Fraction Curve Name
  {0fa4614b-05fa-48fd-97c2-af53770c9c5c}; !- Speed Data List

OS:Curve:Quadratic,
  {6399f8c9-c652-4445-b99c-aea877b57252}, !- Handle
  Curve Quadratic 1,                      !- Name
  0.85,                                   !- Coefficient1 Constant
  0.15,                                   !- Coefficient2 x
  0,                                      !- Coefficient3 x**2
  0,                                      !- Minimum Value of x
  1;                                      !- Maximum Value of x

OS:ModelObjectList,
  {0fa4614b-05fa-48fd-97c2-af53770c9c5c}, !- Handle
  CC VsdEq Solo Speed Data List;          !- Name

OS:Coil:Cooling:DX:VariableSpeed,
  {fb406fe4-65c4-44d6-8bc3-b5ef9f587608}, !- Handle
  CC DXVsd Solo,                          !- Name
  ,                                       !- Indoor Air Inlet Node Name
  ,                                       !- Indoor Air Outlet Node Name
  1,                                      !- Nominal Speed Level {dimensionless}
  autosize,                               !- Gross Rated Total Cooling Capacity At Selected Nominal Speed Level {W}
  autosize,                               !- Rated Air Flow Rate At Selected Nominal Speed Level {m3/s}
  0,                                      !- Nominal Time for Condensate to Begin Leaving the Coil {s}
  0.02,                                   !- Initial Moisture Evaporation Rate Divided by Steady-State AC Latent Capacity {dimensionless}
  {274d59b1-6f4a-4353-a7c1-d84c3854c57a}, !- Energy Part Load Fraction Curve Name
  ,                                       !- Condenser Air Inlet Node Name
  AirCooled,                              !- Condenser Type
  0,                                      !- Evaporative Condenser Pump Rated Power Consumption {W}
  100,                                    !- Crankcase Heater Capacity {W}
  11,                                     !- Maximum Outdoor Dry-Bulb Temperature for Crankcase Heater Operation {C}
  -25,                                    !- Minimum Outdoor Dry-Bulb Temperature for Compressor Operation {C}
  ,                                       !- Supply Water Storage Tank Name
  ,                                       !- Condensate Collection Water Storage Tank Name
  0,                                      !- Basin Heater Capacity {W/K}
  2,                                      !- Basin Heater Setpoint Temperature {C}
  ,                                       !- Basin Heater Operating Schedule Name
  {3d6c44f4-16c3-4610-94ff-69df3a8cef38}; !- Speed Data List

OS:Curve:Quadratic,
  {274d59b1-6f4a-4353-a7c1-d84c3854c57a}, !- Handle
  EnergyPartLoadFractionCurve,            !- Name
  0.85,                                   !- Coefficient1 Constant
  0.15,                                   !- Coefficient2 x
  0,                                      !- Coefficient3 x**2
  0,                                      !- Minimum Value of x
  1;                                      !- Maximum Value of x

OS:ModelObjectList,
  {3d6c44f4-16c3-4610-94ff-69df3a8cef38}, !- Handle
  CC DXVsd Solo Speed Data List;          !- Name

OS:Coil:Heating:WaterToAirHeatPump:EquationFit,
  {c92b5b51-09fc-459d-8600-a6323d0ccbed}, !- Handle
  HC Eq Solo,                             !- Name
  ,                                       !- Water Inlet Node Name
  ,                                       !- Water Outlet Node Name
  ,                                       !- Air Inlet Node Name
  ,                                       !- Air Outlet Node Name
  ,                                       !- Rated Air Flow Rate {m3/s}
  ,                                       !- Rated Water Flow Rate {m3/s}
  ,                                       !- Rated Heating Capacity {W}
  ,                                       !- Rated Heating Coefficient of Performance {W/W}
  20,                                     !- Rated Entering Water Temperature {C}
  20,                                     !- Rated Entering Air Dry-Bulb Temperature {C}
  1,                                      !- Ratio of Rated Heating Capacity to Rated Cooling Capacity
  {cc1351bc-b56c-421f-91c8-834e05999362}, !- Heating Capacity Curve Name
  {616664ac-f506-4c6a-b648-131d6c93ce14}; !- Heating Power Consumption Curve Name

OS:Curve:QuadLinear,
  {cc1351bc-b56c-421f-91c8-834e05999362}, !- Handle
  Curve Quad Linear 1,                    !- Name
  -5.50102734,                            !- Coefficient1 Constant
  -0.96688754,                            !- Coefficient2 w
  7.70755007,                             !- Coefficient3 x
  0.031928881,                            !- Coefficient4 y
  0.028112522,                            !- Coefficient5 z
  -100,                                   !- Minimum Value of w {BasedOnField A2}
  100,                                    !- Maximum Value of w {BasedOnField A2}
  -100,                                   !- Minimum Value of x {BasedOnField A3}
  100,                                    !- Maximum Value of x {BasedOnField A3}
  0,                                      !- Minimum Value of y {BasedOnField A4}
  100,                                    !- Maximum Value of y {BasedOnField A4}
  0,                                      !- Minimum Value of z {BasedOnField A5}
  100;                                    !- Maximum Value of z {BasedOnField A5}

OS:Curve:QuadLinear,
  {616664ac-f506-4c6a-b648-131d6c93ce14}, !- Handle
  heatingPowerConsumptionCurve,           !- Name
  -7.47517858,                            !- Coefficient1 Constant
  6.40876653,                             !- Coefficient2 w
  1.99711665,                             !- Coefficient3 x
  -0.050682973,                           !- Coefficient4 y
  0.011385145,                            !- Coefficient5 z
  -100,                                   !- Minimum Value of w {BasedOnField A2}
  100,                                    !- Maximum Value of w {BasedOnField A2}
  -100,                                   !- Minimum Value of x {BasedOnField A3}
  100,                                    !- Maximum Value of x {BasedOnField A3}
  0,                                      !- Minimum Value of y {BasedOnField A4}
  100,                                    !- Maximum Value of y {BasedOnField A4}
  0,                                      !- Minimum Value of z {BasedOnField A5}
  100;                                    !- Maximum Value of z {BasedOnField A5}

OS:Coil:Heating:WaterToAirHeatPump:VariableSpeedEquationFit,
  {def136fb-70b9-4ced-83d1-6839e4d88b11}, !- Handle
  HC VsdEq Solo,                          !- Name
  ,                                       !- Water-to-Refrigerant HX Water Inlet Node Name
  ,                                       !- Water-to-Refrigerant HX Water Outlet Node Name
  ,                                       !- Indoor Air Inlet Node Name
  ,                                       !- Indoor Air Outlet Node Name
  1,                                      !- Nominal Speed Level {dimensionless}
  autosize,                               !- Rated Heating Capacity At Selected Nominal Speed Level {W}
  autosize,                               !- Rated Air Flow Rate At Selected Nominal Speed Level {m3/s}
  autosize,                               !- Rated Water Flow Rate At Selected Nominal Speed Level {m3/s}
  {9eee9bec-ba95-4e12-946f-fe55afa77378}, !- Energy Part Load Fraction Curve Name
  {6e4fa886-62a6-40cc-ad4d-4dffd2548b07}; !- Speed Data List

OS:Curve:Quadratic,
  {9eee9bec-ba95-4e12-946f-fe55afa77378}, !- Handle
  Curve Quadratic 2,                      !- Name
  0.85,                                   !- Coefficient1 Constant
  0.15,                                   !- Coefficient2 x
  0,                                      !- Coefficient3 x**2
  0,                                      !- Minimum Value of x
  1;                                      !- Maximum Value of x

OS:ModelObjectList,
  {6e4fa886-62a6-40cc-ad4d-4dffd2548b07}, !- Handle
  HC VsdEq Solo Speed Data List;          !- Name

