
OS:Version,
  {aa454afe-db2b-4569-8756-bf2403449f84}, !- Handle
  3.6.1;                                  !- Version Identifier

OS:AirLoopHVAC:UnitarySystem,
  {a73a233f-8de3-4652-abf6-5b16fafefc64}, !- Handle
  Unitary CC VsdEq,                       !- Name
  Load,                                   !- Control Type
  ,                                       !- Controlling Zone or Thermostat Location
  None,                                   !- Dehumidification Control Type
  ,                                       !- Availability Schedule Name
  ,                                       !- Air Inlet Node Name
  ,                                       !- Air Outlet Node Name
  ,                                       !- Supply Fan Name
  ,                                       !- Fan Placement
  ,                                       !- Supply Air Fan Operating Mode Schedule Name
  ,                                       !- Heating Coil Name
  1,                                      !- DX Heating Coil Sizing Ratio
  {06166c33-d20b-4d1f-b063-8fe9e0b5320d}, !- Cooling Coil Name
  No,                                     !- Use DOAS DX Cooling Coil
  2,                                      !- DOAS DX Cooling Coil Leaving Minimum Air Temperature {C}
  SensibleOnlyLoadControl,                !- Latent Load Control
  ,                                       !- Supplemental Heating Coil Name
  ,                                       !- Supply Air Flow Rate Method During Cooling Operation
  Autosize,                               !- Supply Air Flow Rate During Cooling Operation {m3/s}
  ,                                       !- Supply Air Flow Rate Per Floor Area During Cooling Operation {m3/s-m2}
  ,                                       !- Fraction of Autosized Design Cooling Supply Air Flow Rate
  ,                                       !- Design Supply Air Flow Rate Per Unit of Capacity During Cooling Operation {m3/s-W}
  ,                                       !- Supply Air Flow Rate Method During Heating Operation
  Autosize,                               !- Supply Air Flow Rate During Heating Operation {m3/s}
  ,                                       !- Supply Air Flow Rate Per Floor Area during Heating Operation {m3/s-m2}
  ,                                       !- Fraction of Autosized Design Heating Supply Air Flow Rate
  ,                                       !- Design Supply Air Flow Rate Per Unit of Capacity During Heating Operation {m3/s-W}
  ,                                       !- Supply Air Flow Rate Method When No Cooling or Heating is Required
  Autosize,                               !- Supply Air Flow Rate When No Cooling or Heating is Required {m3/s}
  ,                                       !- Supply Air Flow Rate Per Floor Area When No Cooling or Heating is Required {m3/s-m2}
  ,                                       !- Fraction of Autosized Design Cooling Supply Air Flow Rate When No Cooling or Heating is Required
  ,                                       !- Fraction of Autosized Design Heating Supply Air Flow Rate When No Cooling or Heating is Required
  ,                                       !- Design Supply Air Flow Rate Per Unit of Capacity During Cooling Operation When No Cooling or Heating is Required {m3/s-W}
  ,                                       !- Design Supply Air Flow Rate Per Unit of Capacity During Heating Operation When No Cooling or Heating is Required {m3/s-W}
  80,                                     !- Maximum Supply Air Temperature {C}
  21,                                     !- Maximum Outdoor Dry-Bulb Temperature for Supplemental Heater Operation {C}
  sensor,                                 !- Outdoor Dry-Bulb Temperature Sensor Node Name
  3.5,                                    !- Maximum Cycling Rate {cycles/hr}
  90,                                     !- Heat Pump Time Constant {s}
  0.05,                                   !- Fraction of On-Cycle Power Use
  120,                                    !- Heat Pump Fan Delay Time {s}
  2,                                      !- Ancilliary On-Cycle Electric Power {W}
  1;                                      !- Ancilliary Off-Cycle Electric Power {W}

OS:Coil:Cooling:WaterToAirHeatPump:VariableSpeedEquationFit,
  {06166c33-d20b-4d1f-b063-8fe9e0b5320d}, !- Handle
  CC VsdEq Unitary,                       !- Name
  ,                                       !- Water-to-Refrigerant HX Water Inlet Node Name
  ,                                       !- Water-to-Refrigerant HX Water Outlet Node Name
  ,                                       !- Indoor Air Inlet Node Name
  ,                                       !- Indoor Air Outlet Node Name
  1,                                      !- Nominal Speed Level {dimensionless}
  autosize,                               !- Gross Rated Total Cooling Capacity At Selected Nominal Speed Level {W}
  autosize,                               !- Rated Air Flow Rate At Selected Nominal Speed Level {m3/s}
  autosize,                               !- Rated Water Flow Rate At Selected Nominal Speed Level {m3/s}
  0,                                      !- Nominal Time for Condensate to Begin Leaving the Coil {s}
  0.02,                                   !- Initial Moisture Evaporation Rate Divided by Steady-State AC Latent Capacity {dimensionless}
  Yes,                                    !- Use Hot Gas Reheat
  {5a1117f9-7203-4f2f-9d93-a492df156198}, !- Energy Part Load Fraction Curve Name
  {d8f655d3-ff96-4d13-8746-23cdeaf20c1f}; !- Speed Data List

OS:Curve:Quadratic,
  {5a1117f9-7203-4f2f-9d93-a492df156198}, !- Handle
  Curve Quadratic 1,                      !- Name
  0.85,                                   !- Coefficient1 Constant
  0.15,                                   !- Coefficient2 x
  0,                                      !- Coefficient3 x**2
  0,                                      !- Minimum Value of x
  1;                                      !- Maximum Value of x

OS:ModelObjectList,
  {d8f655d3-ff96-4d13-8746-23cdeaf20c1f}, !- Handle
  CC VsdEq Unitary Speed Data List;       !- Name

OS:AirLoopHVAC:UnitarySystem,
  {a31dd916-30bf-4eb7-a2d6-7d7318eee2d2}, !- Handle
  Unitary CC DXVsd,                       !- Name
  Load,                                   !- Control Type
  ,                                       !- Controlling Zone or Thermostat Location
  None,                                   !- Dehumidification Control Type
  ,                                       !- Availability Schedule Name
  ,                                       !- Air Inlet Node Name
  ,                                       !- Air Outlet Node Name
  ,                                       !- Supply Fan Name
  ,                                       !- Fan Placement
  ,                                       !- Supply Air Fan Operating Mode Schedule Name
  ,                                       !- Heating Coil Name
  1,                                      !- DX Heating Coil Sizing Ratio
  {3509b1fa-1329-4dde-afc9-e3f113a8d734}, !- Cooling Coil Name
  No,                                     !- Use DOAS DX Cooling Coil
  2,                                      !- DOAS DX Cooling Coil Leaving Minimum Air Temperature {C}
  SensibleOnlyLoadControl,                !- Latent Load Control
  ,                                       !- Supplemental Heating Coil Name
  ,                                       !- Supply Air Flow Rate Method During Cooling Operation
  Autosize,                               !- Supply Air Flow Rate During Cooling Operation {m3/s}
  ,                                       !- Supply Air Flow Rate Per Floor Area During Cooling Operation {m3/s-m2}
  ,                                       !- Fraction of Autosized Design Cooling Supply Air Flow Rate
  ,                                       !- Design Supply Air Flow Rate Per Unit of Capacity During Cooling Operation {m3/s-W}
  ,                                       !- Supply Air Flow Rate Method During Heating Operation
  Autosize,                               !- Supply Air Flow Rate During Heating Operation {m3/s}
  ,                                       !- Supply Air Flow Rate Per Floor Area during Heating Operation {m3/s-m2}
  ,                                       !- Fraction of Autosized Design Heating Supply Air Flow Rate
  ,                                       !- Design Supply Air Flow Rate Per Unit of Capacity During Heating Operation {m3/s-W}
  ,                                       !- Supply Air Flow Rate Method When No Cooling or Heating is Required
  Autosize,                               !- Supply Air Flow Rate When No Cooling or Heating is Required {m3/s}
  ,                                       !- Supply Air Flow Rate Per Floor Area When No Cooling or Heating is Required {m3/s-m2}
  ,                                       !- Fraction of Autosized Design Cooling Supply Air Flow Rate When No Cooling or Heating is Required
  ,                                       !- Fraction of Autosized Design Heating Supply Air Flow Rate When No Cooling or Heating is Required
  ,                                       !- Design Supply Air Flow Rate Per Unit of Capacity During Cooling Operation When No Cooling or Heating is Required {m3/s-W}
  ,                                       !- Design Supply Air Flow Rate Per Unit of Capacity During Heating Operation When No Cooling or Heating is Required {m3/s-W}
  80,                                     !- Maximum Supply Air Temperature {C}
  21,                                     !- Maximum Outdoor Dry-Bulb Temperature for Supplemental Heater Operation {C}
  sensor,                                 !- Outdoor Dry-Bulb Temperature Sensor Node Name
  3.5,                                    !- Maximum Cycling Rate {cycles/hr}
  90,                                     !- Heat Pump Time Constant {s}
  0.05,                                   !- Fraction of On-Cycle Power Use
  120,                                    !- Heat Pump Fan Delay Time {s}
  2,                                      !- Ancilliary On-Cycle Electric Power {W}
  1;                                      !- Ancilliary Off-Cycle Electric Power {W}

OS:Coil:Cooling:DX:VariableSpeed,
  {3509b1fa-1329-4dde-afc9-e3f113a8d734}, !- Handle
  CC DXVsd Unitary,                       !- Name
  ,                                       !- Indoor Air Inlet Node Name
  ,                                       !- Indoor Air Outlet Node Name
  1,                                      !- Nominal Speed Level {dimensionless}
  autosize,                               !- Gross Rated Total Cooling Capacity At Selected Nominal Speed Level {W}
  autosize,                               !- Rated Air Flow Rate At Selected Nominal Speed Level {m3/s}
  0,                                      !- Nominal Time for Condensate to Begin Leaving the Coil {s}
  0.02,                                   !- Initial Moisture Evaporation Rate Divided by Steady-State AC Latent Capacity {dimensionless}
  {aa15dcfd-0a00-448f-b420-6d0ee722f943}, !- Energy Part Load Fraction Curve Name
  ,                                       !- Condenser Air Inlet Node Name
  AirCooled,                              !- Condenser Type
  0,                                      !- Evaporative Condenser Pump Rated Power Consumption {W}
  100,                                    !- Crankcase Heater Capacity {W}
  11,                                     !- Maximum Outdoor Dry-Bulb Temperature for Crankcase Heater Operation {C}
  -25,                                    !- Minimum Outdoor Dry-Bulb Temperature for Compressor Operation {C}
  ,                                       !- Supply Water Storage Tank Name
  ,                                       !- Condensate Collection Water Storage Tank Name
  0,                                      !- Basin Heater Capacity {W/K}
  2,                                      !- Basin Heater Setpoint Temperature {C}
  ,                                       !- Basin Heater Operating Schedule Name
  {12b10568-1201-45ca-a886-7b648a045819}; !- Speed Data List

OS:Curve:Quadratic,
  {aa15dcfd-0a00-448f-b420-6d0ee722f943}, !- Handle
  CC DXVsd Unitary EnergyPartLoadFractionCurve, !- Name
  0.85,                                   !- Coefficient1 Constant
  0.15,                                   !- Coefficient2 x
  0,                                      !- Coefficient3 x**2
  0,                                      !- Minimum Value of x
  1;                                      !- Maximum Value of x

OS:ModelObjectList,
  {12b10568-1201-45ca-a886-7b648a045819}, !- Handle
  CC DXVsd Unitary Speed Data List;       !- Name

OS:AirLoopHVAC:UnitarySystem,
  {65947409-582c-417c-9bce-7d4835578ff6}, !- Handle
  Unitary HC VsdEq,                       !- Name
  Load,                                   !- Control Type
  ,                                       !- Controlling Zone or Thermostat Location
  None,                                   !- Dehumidification Control Type
  ,                                       !- Availability Schedule Name
  ,                                       !- Air Inlet Node Name
  ,                                       !- Air Outlet Node Name
  ,                                       !- Supply Fan Name
  ,                                       !- Fan Placement
  ,                                       !- Supply Air Fan Operating Mode Schedule Name
  {ce7262f6-9de5-48b3-9ce3-b572561126b5}, !- Heating Coil Name
  1,                                      !- DX Heating Coil Sizing Ratio
  ,                                       !- Cooling Coil Name
  No,                                     !- Use DOAS DX Cooling Coil
  2,                                      !- DOAS DX Cooling Coil Leaving Minimum Air Temperature {C}
  SensibleOnlyLoadControl,                !- Latent Load Control
  ,                                       !- Supplemental Heating Coil Name
  ,                                       !- Supply Air Flow Rate Method During Cooling Operation
  Autosize,                               !- Supply Air Flow Rate During Cooling Operation {m3/s}
  ,                                       !- Supply Air Flow Rate Per Floor Area During Cooling Operation {m3/s-m2}
  ,                                       !- Fraction of Autosized Design Cooling Supply Air Flow Rate
  ,                                       !- Design Supply Air Flow Rate Per Unit of Capacity During Cooling Operation {m3/s-W}
  ,                                       !- Supply Air Flow Rate Method During Heating Operation
  Autosize,                               !- Supply Air Flow Rate During Heating Operation {m3/s}
  ,                                       !- Supply Air Flow Rate Per Floor Area during Heating Operation {m3/s-m2}
  ,                                       !- Fraction of Autosized Design Heating Supply Air Flow Rate
  ,                                       !- Design Supply Air Flow Rate Per Unit of Capacity During Heating Operation {m3/s-W}
  ,                                       !- Supply Air Flow Rate Method When No Cooling or Heating is Required
  Autosize,                               !- Supply Air Flow Rate When No Cooling or Heating is Required {m3/s}
  ,                                       !- Supply Air Flow Rate Per Floor Area When No Cooling or Heating is Required {m3/s-m2}
  ,                                       !- Fraction of Autosized Design Cooling Supply Air Flow Rate When No Cooling or Heating is Required
  ,                                       !- Fraction of Autosized Design Heating Supply Air Flow Rate When No Cooling or Heating is Required
  ,                                       !- Design Supply Air Flow Rate Per Unit of Capacity During Cooling Operation When No Cooling or Heating is Required {m3/s-W}
  ,                                       !- Design Supply Air Flow Rate Per Unit of Capacity During Heating Operation When No Cooling or Heating is Required {m3/s-W}
  80,                                     !- Maximum Supply Air Temperature {C}
  21,                                     !- Maximum Outdoor Dry-Bulb Temperature for Supplemental Heater Operation {C}
  sensor,                                 !- Outdoor Dry-Bulb Temperature Sensor Node Name
  3.5,                                    !- Maximum Cycling Rate {cycles/hr}
  90,                                     !- Heat Pump Time Constant {s}
  0.05,                                   !- Fraction of On-Cycle Power Use
  120,                                    !- Heat Pump Fan Delay Time {s}
  2,                                      !- Ancilliary On-Cycle Electric Power {W}
  1;                                      !- Ancilliary Off-Cycle Electric Power {W}

OS:Coil:Heating:WaterToAirHeatPump:VariableSpeedEquationFit,
  {ce7262f6-9de5-48b3-9ce3-b572561126b5}, !- Handle
  HC VsdEq Unitary,                       !- Name
  ,                                       !- Water-to-Refrigerant HX Water Inlet Node Name
  ,                                       !- Water-to-Refrigerant HX Water Outlet Node Name
  ,                                       !- Indoor Air Inlet Node Name
  ,                                       !- Indoor Air Outlet Node Name
  1,                                      !- Nominal Speed Level {dimensionless}
  autosize,                               !- Rated Heating Capacity At Selected Nominal Speed Level {W}
  autosize,                               !- Rated Air Flow Rate At Selected Nominal Speed Level {m3/s}
  autosize,                               !- Rated Water Flow Rate At Selected Nominal Speed Level {m3/s}
  {f155cd8c-5475-4c37-8272-5ceb27e1bb45}, !- Energy Part Load Fraction Curve Name
  {509a5102-a4a9-4907-aa57-7d0c0c438a8b}; !- Speed Data List

OS:Curve:Quadratic,
  {f155cd8c-5475-4c37-8272-5ceb27e1bb45}, !- Handle
  Curve Quadratic 2,                      !- Name
  0.85,                                   !- Coefficient1 Constant
  0.15,                                   !- Coefficient2 x
  0,                                      !- Coefficient3 x**2
  0,                                      !- Minimum Value of x
  1;                                      !- Maximum Value of x

OS:ModelObjectList,
  {509a5102-a4a9-4907-aa57-7d0c0c438a8b}, !- Handle
  HC VsdEq Unitary Speed Data List;       !- Name

OS:AirLoopHVAC:UnitarySystem,
  {50b4bee3-2429-4c28-acab-e9f3d0be16b8}, !- Handle
  Unitary Both VsdEq,                     !- Name
  Load,                                   !- Control Type
  ,                                       !- Controlling Zone or Thermostat Location
  None,                                   !- Dehumidification Control Type
  ,                                       !- Availability Schedule Name
  ,                                       !- Air Inlet Node Name
  ,                                       !- Air Outlet Node Name
  ,                                       !- Supply Fan Name
  ,                                       !- Fan Placement
  ,                                       !- Supply Air Fan Operating Mode Schedule Name
  {b02cd86d-69b5-47e7-af50-154601781732}, !- Heating Coil Name
  1,                                      !- DX Heating Coil Sizing Ratio
  {ec04f6a8-4557-4bdf-a244-62a7425eeab7}, !- Cooling Coil Name
  No,                                     !- Use DOAS DX Cooling Coil
  2,                                      !- DOAS DX Cooling Coil Leaving Minimum Air Temperature {C}
  SensibleOnlyLoadControl,                !- Latent Load Control
  ,                                       !- Supplemental Heating Coil Name
  ,                                       !- Supply Air Flow Rate Method During Cooling Operation
  Autosize,                               !- Supply Air Flow Rate During Cooling Operation {m3/s}
  ,                                       !- Supply Air Flow Rate Per Floor Area During Cooling Operation {m3/s-m2}
  ,                                       !- Fraction of Autosized Design Cooling Supply Air Flow Rate
  ,                                       !- Design Supply Air Flow Rate Per Unit of Capacity During Cooling Operation {m3/s-W}
  ,                                       !- Supply Air Flow Rate Method During Heating Operation
  Autosize,                               !- Supply Air Flow Rate During Heating Operation {m3/s}
  ,                                       !- Supply Air Flow Rate Per Floor Area during Heating Operation {m3/s-m2}
  ,                                       !- Fraction of Autosized Design Heating Supply Air Flow Rate
  ,                                       !- Design Supply Air Flow Rate Per Unit of Capacity During Heating Operation {m3/s-W}
  ,                                       !- Supply Air Flow Rate Method When No Cooling or Heating is Required
  Autosize,                               !- Supply Air Flow Rate When No Cooling or Heating is Required {m3/s}
  ,                                       !- Supply Air Flow Rate Per Floor Area When No Cooling or Heating is Required {m3/s-m2}
  ,                                       !- Fraction of Autosized Design Cooling Supply Air Flow Rate When No Cooling or Heating is Required
  ,                                       !- Fraction of Autosized Design Heating Supply Air Flow Rate When No Cooling or Heating is Required
  ,                                       !- Design Supply Air Flow Rate Per Unit of Capacity During Cooling Operation When No Cooling or Heating is Required {m3/s-W}
  ,                                       !- Design Supply Air Flow Rate Per Unit of Capacity During Heating Operation When No Cooling or Heating is Required {m3/s-W}
  80,                                     !- Maximum Supply Air Temperature {C}
  21,                                     !- Maximum Outdoor Dry-Bulb Temperature for Supplemental Heater Operation {C}
  sensor,                                 !- Outdoor Dry-Bulb Temperature Sensor Node Name
  3.5,                                    !- Maximum Cycling Rate {cycles/hr}
  90,                                     !- Heat Pump Time Constant {s}
  0.05,                                   !- Fraction of On-Cycle Power Use
  120,                                    !- Heat Pump Fan Delay Time {s}
  2,                                      !- Ancilliary On-Cycle Electric Power {W}
  1;                                      !- Ancilliary Off-Cycle Electric Power {W}

OS:Coil:Cooling:WaterToAirHeatPump:VariableSpeedEquationFit,
  {ec04f6a8-4557-4bdf-a244-62a7425eeab7}, !- Handle
  CC VsdEq Unitary Both,                  !- Name
  ,                                       !- Water-to-Refrigerant HX Water Inlet Node Name
  ,                                       !- Water-to-Refrigerant HX Water Outlet Node Name
  ,                                       !- Indoor Air Inlet Node Name
  ,                                       !- Indoor Air Outlet Node Name
  1,                                      !- Nominal Speed Level {dimensionless}
  autosize,                               !- Gross Rated Total Cooling Capacity At Selected Nominal Speed Level {W}
  autosize,                               !- Rated Air Flow Rate At Selected Nominal Speed Level {m3/s}
  autosize,                               !- Rated Water Flow Rate At Selected Nominal Speed Level {m3/s}
  0,                                      !- Nominal Time for Condensate to Begin Leaving the Coil {s}
  0.02,                                   !- Initial Moisture Evaporation Rate Divided by Steady-State AC Latent Capacity {dimensionless}
  Yes,                                    !- Use Hot Gas Reheat
  {2385fac1-8934-46bf-b460-aadf5ba84360}, !- Energy Part Load Fraction Curve Name
  {55909c8f-1c11-4868-84a5-6209e47d09ff}; !- Speed Data List

OS:Curve:Quadratic,
  {2385fac1-8934-46bf-b460-aadf5ba84360}, !- Handle
  Curve Quadratic 3,                      !- Name
  0.85,                                   !- Coefficient1 Constant
  0.15,                                   !- Coefficient2 x
  0,                                      !- Coefficient3 x**2
  0,                                      !- Minimum Value of x
  1;                                      !- Maximum Value of x

OS:ModelObjectList,
  {55909c8f-1c11-4868-84a5-6209e47d09ff}, !- Handle
  CC VsdEq Unitary Both Speed Data List;  !- Name

OS:Coil:Heating:WaterToAirHeatPump:VariableSpeedEquationFit,
  {b02cd86d-69b5-47e7-af50-154601781732}, !- Handle
  HC VsdEq Unitary Both,                  !- Name
  ,                                       !- Water-to-Refrigerant HX Water Inlet Node Name
  ,                                       !- Water-to-Refrigerant HX Water Outlet Node Name
  ,                                       !- Indoor Air Inlet Node Name
  ,                                       !- Indoor Air Outlet Node Name
  1,                                      !- Nominal Speed Level {dimensionless}
  autosize,                               !- Rated Heating Capacity At Selected Nominal Speed Level {W}
  autosize,                               !- Rated Air Flow Rate At Selected Nominal Speed Level {m3/s}
  autosize,                               !- Rated Water Flow Rate At Selected Nominal Speed Level {m3/s}
  {52e933d5-4005-4c4a-b5e9-ad5c6e46edcd}, !- Energy Part Load Fraction Curve Name
  {9ea88679-68b4-43ea-8ad3-d82c3a81bf01}; !- Speed Data List

OS:Curve:Quadratic,
  {52e933d5-4005-4c4a-b5e9-ad5c6e46edcd}, !- Handle
  Curve Quadratic 4,                      !- Name
  0.85,                                   !- Coefficient1 Constant
  0.15,                                   !- Coefficient2 x
  0,                                      !- Coefficient3 x**2
  0,                                      !- Minimum Value of x
  1;                                      !- Maximum Value of x

OS:ModelObjectList,
  {9ea88679-68b4-43ea-8ad3-d82c3a81bf01}, !- Handle
  HC VsdEq Unitary Both Speed Data List;  !- Name

