
OS:Version,
  {6f0380f5-67fe-4492-ad7c-7073adf9d9b0}, !- Handle
  3.6.1;                                  !- Version Identifier

OS:AirLoopHVAC:UnitarySystem,
  {2d838eba-10ca-4fb8-a3c8-1d19ac663295}, !- Handle
  Unitary CC VsdEq,                       !- Name
  Load,                                   !- Control Type
  ,                                       !- Controlling Zone or Thermostat Location
  None,                                   !- Dehumidification Control Type
  ,                                       !- Availability Schedule Name
  ,                                       !- Air Inlet Node Name
  ,                                       !- Air Outlet Node Name
  ,                                       !- Supply Fan Name
  ,                                       !- Fan Placement
  ,                                       !- Supply Air Fan Operating Mode Schedule Name
  ,                                       !- Heating Coil Name
  1,                                      !- DX Heating Coil Sizing Ratio
  {a648d160-0ceb-417e-ae9b-1ef39a3a9b08}, !- Cooling Coil Name
  No,                                     !- Use DOAS DX Cooling Coil
  2,                                      !- DOAS DX Cooling Coil Leaving Minimum Air Temperature {C}
  SensibleOnlyLoadControl,                !- Latent Load Control
  ,                                       !- Supplemental Heating Coil Name
  ,                                       !- Supply Air Flow Rate Method During Cooling Operation
  Autosize,                               !- Supply Air Flow Rate During Cooling Operation {m3/s}
  ,                                       !- Supply Air Flow Rate Per Floor Area During Cooling Operation {m3/s-m2}
  ,                                       !- Fraction of Autosized Design Cooling Supply Air Flow Rate
  ,                                       !- Design Supply Air Flow Rate Per Unit of Capacity During Cooling Operation {m3/s-W}
  ,                                       !- Supply Air Flow Rate Method During Heating Operation
  Autosize,                               !- Supply Air Flow Rate During Heating Operation {m3/s}
  ,                                       !- Supply Air Flow Rate Per Floor Area during Heating Operation {m3/s-m2}
  ,                                       !- Fraction of Autosized Design Heating Supply Air Flow Rate
  ,                                       !- Design Supply Air Flow Rate Per Unit of Capacity During Heating Operation {m3/s-W}
  ,                                       !- Supply Air Flow Rate Method When No Cooling or Heating is Required
  Autosize,                               !- Supply Air Flow Rate When No Cooling or Heating is Required {m3/s}
  ,                                       !- Supply Air Flow Rate Per Floor Area When No Cooling or Heating is Required {m3/s-m2}
  ,                                       !- Fraction of Autosized Design Cooling Supply Air Flow Rate When No Cooling or Heating is Required
  ,                                       !- Fraction of Autosized Design Heating Supply Air Flow Rate When No Cooling or Heating is Required
  ,                                       !- Design Supply Air Flow Rate Per Unit of Capacity During Cooling Operation When No Cooling or Heating is Required {m3/s-W}
  ,                                       !- Design Supply Air Flow Rate Per Unit of Capacity During Heating Operation When No Cooling or Heating is Required {m3/s-W}
  80,                                     !- Maximum Supply Air Temperature {C}
  21,                                     !- Maximum Outdoor Dry-Bulb Temperature for Supplemental Heater Operation {C}
  sensor,                                 !- Outdoor Dry-Bulb Temperature Sensor Node Name
  3.5,                                    !- Maximum Cycling Rate {cycles/hr}
  90,                                     !- Heat Pump Time Constant {s}
  0.05,                                   !- Fraction of On-Cycle Power Use
  120,                                    !- Heat Pump Fan Delay Time {s}
  2,                                      !- Ancilliary On-Cycle Electric Power {W}
  1;                                      !- Ancilliary Off-Cycle Electric Power {W}

OS:Coil:Cooling:WaterToAirHeatPump:VariableSpeedEquationFit,
  {a648d160-0ceb-417e-ae9b-1ef39a3a9b08}, !- Handle
  CC VsdEq Unitary,                       !- Name
  ,                                       !- Water-to-Refrigerant HX Water Inlet Node Name
  ,                                       !- Water-to-Refrigerant HX Water Outlet Node Name
  ,                                       !- Indoor Air Inlet Node Name
  ,                                       !- Indoor Air Outlet Node Name
  1,                                      !- Nominal Speed Level {dimensionless}
  autosize,                               !- Gross Rated Total Cooling Capacity At Selected Nominal Speed Level {W}
  autosize,                               !- Rated Air Flow Rate At Selected Nominal Speed Level {m3/s}
  autosize,                               !- Rated Water Flow Rate At Selected Nominal Speed Level {m3/s}
  0,                                      !- Nominal Time for Condensate to Begin Leaving the Coil {s}
  0.02,                                   !- Initial Moisture Evaporation Rate Divided by Steady-State AC Latent Capacity {dimensionless}
  Yes,                                    !- Use Hot Gas Reheat
  {167ad337-1c17-4dcf-8ddc-0031cf38d328}, !- Energy Part Load Fraction Curve Name
  {a2da6689-e224-4d82-af0e-c6b70b6a9ebb}; !- Speed Data List

OS:Curve:Quadratic,
  {167ad337-1c17-4dcf-8ddc-0031cf38d328}, !- Handle
  Curve Quadratic 1,                      !- Name
  0.85,                                   !- Coefficient1 Constant
  0.15,                                   !- Coefficient2 x
  0,                                      !- Coefficient3 x**2
  0,                                      !- Minimum Value of x
  1;                                      !- Maximum Value of x

OS:ModelObjectList,
  {a2da6689-e224-4d82-af0e-c6b70b6a9ebb}, !- Handle
  CC VsdEq Unitary Speed Data List;       !- Name

OS:AirLoopHVAC:UnitarySystem,
  {4f6eca8a-9b60-4d56-9587-a7547ebc39d4}, !- Handle
  Unitary CC DXVsd,                       !- Name
  Load,                                   !- Control Type
  ,                                       !- Controlling Zone or Thermostat Location
  None,                                   !- Dehumidification Control Type
  ,                                       !- Availability Schedule Name
  ,                                       !- Air Inlet Node Name
  ,                                       !- Air Outlet Node Name
  ,                                       !- Supply Fan Name
  ,                                       !- Fan Placement
  ,                                       !- Supply Air Fan Operating Mode Schedule Name
  ,                                       !- Heating Coil Name
  1,                                      !- DX Heating Coil Sizing Ratio
  {0860de88-7667-4700-9a2d-38f1223933e6}, !- Cooling Coil Name
  No,                                     !- Use DOAS DX Cooling Coil
  2,                                      !- DOAS DX Cooling Coil Leaving Minimum Air Temperature {C}
  SensibleOnlyLoadControl,                !- Latent Load Control
  ,                                       !- Supplemental Heating Coil Name
  ,                                       !- Supply Air Flow Rate Method During Cooling Operation
  Autosize,                               !- Supply Air Flow Rate During Cooling Operation {m3/s}
  ,                                       !- Supply Air Flow Rate Per Floor Area During Cooling Operation {m3/s-m2}
  ,                                       !- Fraction of Autosized Design Cooling Supply Air Flow Rate
  ,                                       !- Design Supply Air Flow Rate Per Unit of Capacity During Cooling Operation {m3/s-W}
  ,                                       !- Supply Air Flow Rate Method During Heating Operation
  Autosize,                               !- Supply Air Flow Rate During Heating Operation {m3/s}
  ,                                       !- Supply Air Flow Rate Per Floor Area during Heating Operation {m3/s-m2}
  ,                                       !- Fraction of Autosized Design Heating Supply Air Flow Rate
  ,                                       !- Design Supply Air Flow Rate Per Unit of Capacity During Heating Operation {m3/s-W}
  ,                                       !- Supply Air Flow Rate Method When No Cooling or Heating is Required
  Autosize,                               !- Supply Air Flow Rate When No Cooling or Heating is Required {m3/s}
  ,                                       !- Supply Air Flow Rate Per Floor Area When No Cooling or Heating is Required {m3/s-m2}
  ,                                       !- Fraction of Autosized Design Cooling Supply Air Flow Rate When No Cooling or Heating is Required
  ,                                       !- Fraction of Autosized Design Heating Supply Air Flow Rate When No Cooling or Heating is Required
  ,                                       !- Design Supply Air Flow Rate Per Unit of Capacity During Cooling Operation When No Cooling or Heating is Required {m3/s-W}
  ,                                       !- Design Supply Air Flow Rate Per Unit of Capacity During Heating Operation When No Cooling or Heating is Required {m3/s-W}
  80,                                     !- Maximum Supply Air Temperature {C}
  21,                                     !- Maximum Outdoor Dry-Bulb Temperature for Supplemental Heater Operation {C}
  sensor,                                 !- Outdoor Dry-Bulb Temperature Sensor Node Name
  3.5,                                    !- Maximum Cycling Rate {cycles/hr}
  90,                                     !- Heat Pump Time Constant {s}
  0.05,                                   !- Fraction of On-Cycle Power Use
  120,                                    !- Heat Pump Fan Delay Time {s}
  2,                                      !- Ancilliary On-Cycle Electric Power {W}
  1;                                      !- Ancilliary Off-Cycle Electric Power {W}

OS:Coil:Cooling:DX:VariableSpeed,
  {0860de88-7667-4700-9a2d-38f1223933e6}, !- Handle
  CC DXVsd Unitary,                       !- Name
  ,                                       !- Indoor Air Inlet Node Name
  ,                                       !- Indoor Air Outlet Node Name
  1,                                      !- Nominal Speed Level {dimensionless}
  autosize,                               !- Gross Rated Total Cooling Capacity At Selected Nominal Speed Level {W}
  autosize,                               !- Rated Air Flow Rate At Selected Nominal Speed Level {m3/s}
  0,                                      !- Nominal Time for Condensate to Begin Leaving the Coil {s}
  0.02,                                   !- Initial Moisture Evaporation Rate Divided by Steady-State AC Latent Capacity {dimensionless}
  {34959e1b-6dca-4588-b2db-66d0607abe56}, !- Energy Part Load Fraction Curve Name
  ,                                       !- Condenser Air Inlet Node Name
  AirCooled,                              !- Condenser Type
  0,                                      !- Evaporative Condenser Pump Rated Power Consumption {W}
  100,                                    !- Crankcase Heater Capacity {W}
  11,                                     !- Maximum Outdoor Dry-Bulb Temperature for Crankcase Heater Operation {C}
  -25,                                    !- Minimum Outdoor Dry-Bulb Temperature for Compressor Operation {C}
  ,                                       !- Supply Water Storage Tank Name
  ,                                       !- Condensate Collection Water Storage Tank Name
  0,                                      !- Basin Heater Capacity {W/K}
  2,                                      !- Basin Heater Setpoint Temperature {C}
  ,                                       !- Basin Heater Operating Schedule Name
  {3a6074a8-8b5e-40da-b92a-c924d37e7792}; !- Speed Data List

OS:Curve:Quadratic,
  {34959e1b-6dca-4588-b2db-66d0607abe56}, !- Handle
  CC DXVsd Unitary EnergyPartLoadFractionCurve, !- Name
  0.85,                                   !- Coefficient1 Constant
  0.15,                                   !- Coefficient2 x
  0,                                      !- Coefficient3 x**2
  0,                                      !- Minimum Value of x
  1;                                      !- Maximum Value of x

OS:ModelObjectList,
  {3a6074a8-8b5e-40da-b92a-c924d37e7792}, !- Handle
  CC DXVsd Unitary Speed Data List;       !- Name

OS:AirLoopHVAC:UnitarySystem,
  {4ad30900-1eea-4b5b-848e-4bad1da1f599}, !- Handle
  Unitary HC VsdEq,                       !- Name
  Load,                                   !- Control Type
  ,                                       !- Controlling Zone or Thermostat Location
  None,                                   !- Dehumidification Control Type
  ,                                       !- Availability Schedule Name
  ,                                       !- Air Inlet Node Name
  ,                                       !- Air Outlet Node Name
  ,                                       !- Supply Fan Name
  ,                                       !- Fan Placement
  ,                                       !- Supply Air Fan Operating Mode Schedule Name
  {b946f1e5-2409-40d0-b63f-273ad450eb91}, !- Heating Coil Name
  1,                                      !- DX Heating Coil Sizing Ratio
  ,                                       !- Cooling Coil Name
  No,                                     !- Use DOAS DX Cooling Coil
  2,                                      !- DOAS DX Cooling Coil Leaving Minimum Air Temperature {C}
  SensibleOnlyLoadControl,                !- Latent Load Control
  ,                                       !- Supplemental Heating Coil Name
  ,                                       !- Supply Air Flow Rate Method During Cooling Operation
  Autosize,                               !- Supply Air Flow Rate During Cooling Operation {m3/s}
  ,                                       !- Supply Air Flow Rate Per Floor Area During Cooling Operation {m3/s-m2}
  ,                                       !- Fraction of Autosized Design Cooling Supply Air Flow Rate
  ,                                       !- Design Supply Air Flow Rate Per Unit of Capacity During Cooling Operation {m3/s-W}
  ,                                       !- Supply Air Flow Rate Method During Heating Operation
  Autosize,                               !- Supply Air Flow Rate During Heating Operation {m3/s}
  ,                                       !- Supply Air Flow Rate Per Floor Area during Heating Operation {m3/s-m2}
  ,                                       !- Fraction of Autosized Design Heating Supply Air Flow Rate
  ,                                       !- Design Supply Air Flow Rate Per Unit of Capacity During Heating Operation {m3/s-W}
  ,                                       !- Supply Air Flow Rate Method When No Cooling or Heating is Required
  Autosize,                               !- Supply Air Flow Rate When No Cooling or Heating is Required {m3/s}
  ,                                       !- Supply Air Flow Rate Per Floor Area When No Cooling or Heating is Required {m3/s-m2}
  ,                                       !- Fraction of Autosized Design Cooling Supply Air Flow Rate When No Cooling or Heating is Required
  ,                                       !- Fraction of Autosized Design Heating Supply Air Flow Rate When No Cooling or Heating is Required
  ,                                       !- Design Supply Air Flow Rate Per Unit of Capacity During Cooling Operation When No Cooling or Heating is Required {m3/s-W}
  ,                                       !- Design Supply Air Flow Rate Per Unit of Capacity During Heating Operation When No Cooling or Heating is Required {m3/s-W}
  80,                                     !- Maximum Supply Air Temperature {C}
  21,                                     !- Maximum Outdoor Dry-Bulb Temperature for Supplemental Heater Operation {C}
  sensor,                                 !- Outdoor Dry-Bulb Temperature Sensor Node Name
  3.5,                                    !- Maximum Cycling Rate {cycles/hr}
  90,                                     !- Heat Pump Time Constant {s}
  0.05,                                   !- Fraction of On-Cycle Power Use
  120,                                    !- Heat Pump Fan Delay Time {s}
  2,                                      !- Ancilliary On-Cycle Electric Power {W}
  1;                                      !- Ancilliary Off-Cycle Electric Power {W}

OS:Coil:Heating:WaterToAirHeatPump:VariableSpeedEquationFit,
  {b946f1e5-2409-40d0-b63f-273ad450eb91}, !- Handle
  HC VsdEq Unitary,                       !- Name
  ,                                       !- Water-to-Refrigerant HX Water Inlet Node Name
  ,                                       !- Water-to-Refrigerant HX Water Outlet Node Name
  ,                                       !- Indoor Air Inlet Node Name
  ,                                       !- Indoor Air Outlet Node Name
  1,                                      !- Nominal Speed Level {dimensionless}
  autosize,                               !- Rated Heating Capacity At Selected Nominal Speed Level {W}
  autosize,                               !- Rated Air Flow Rate At Selected Nominal Speed Level {m3/s}
  autosize,                               !- Rated Water Flow Rate At Selected Nominal Speed Level {m3/s}
  {73c08482-9b9e-4117-8dc5-9bb0a03afe86}, !- Energy Part Load Fraction Curve Name
  {7a29274f-0e0c-4097-8f33-d4880bddb88a}; !- Speed Data List

OS:Curve:Quadratic,
  {73c08482-9b9e-4117-8dc5-9bb0a03afe86}, !- Handle
  Curve Quadratic 2,                      !- Name
  0.85,                                   !- Coefficient1 Constant
  0.15,                                   !- Coefficient2 x
  0,                                      !- Coefficient3 x**2
  0,                                      !- Minimum Value of x
  1;                                      !- Maximum Value of x

OS:ModelObjectList,
  {7a29274f-0e0c-4097-8f33-d4880bddb88a}, !- Handle
  HC VsdEq Unitary Speed Data List;       !- Name

OS:AirLoopHVAC:UnitarySystem,
  {1879a143-0473-403f-b0db-80f1d124f408}, !- Handle
  Unitary Both VsdEq,                     !- Name
  Load,                                   !- Control Type
  ,                                       !- Controlling Zone or Thermostat Location
  None,                                   !- Dehumidification Control Type
  ,                                       !- Availability Schedule Name
  ,                                       !- Air Inlet Node Name
  ,                                       !- Air Outlet Node Name
  ,                                       !- Supply Fan Name
  ,                                       !- Fan Placement
  ,                                       !- Supply Air Fan Operating Mode Schedule Name
  {07593fb1-3d18-44da-be7f-844f2cfcf583}, !- Heating Coil Name
  1,                                      !- DX Heating Coil Sizing Ratio
  ,                                       !- Cooling Coil Name
  No,                                     !- Use DOAS DX Cooling Coil
  2,                                      !- DOAS DX Cooling Coil Leaving Minimum Air Temperature {C}
  SensibleOnlyLoadControl,                !- Latent Load Control
  ,                                       !- Supplemental Heating Coil Name
  ,                                       !- Supply Air Flow Rate Method During Cooling Operation
  Autosize,                               !- Supply Air Flow Rate During Cooling Operation {m3/s}
  ,                                       !- Supply Air Flow Rate Per Floor Area During Cooling Operation {m3/s-m2}
  ,                                       !- Fraction of Autosized Design Cooling Supply Air Flow Rate
  ,                                       !- Design Supply Air Flow Rate Per Unit of Capacity During Cooling Operation {m3/s-W}
  ,                                       !- Supply Air Flow Rate Method During Heating Operation
  Autosize,                               !- Supply Air Flow Rate During Heating Operation {m3/s}
  ,                                       !- Supply Air Flow Rate Per Floor Area during Heating Operation {m3/s-m2}
  ,                                       !- Fraction of Autosized Design Heating Supply Air Flow Rate
  ,                                       !- Design Supply Air Flow Rate Per Unit of Capacity During Heating Operation {m3/s-W}
  ,                                       !- Supply Air Flow Rate Method When No Cooling or Heating is Required
  Autosize,                               !- Supply Air Flow Rate When No Cooling or Heating is Required {m3/s}
  ,                                       !- Supply Air Flow Rate Per Floor Area When No Cooling or Heating is Required {m3/s-m2}
  ,                                       !- Fraction of Autosized Design Cooling Supply Air Flow Rate When No Cooling or Heating is Required
  ,                                       !- Fraction of Autosized Design Heating Supply Air Flow Rate When No Cooling or Heating is Required
  ,                                       !- Design Supply Air Flow Rate Per Unit of Capacity During Cooling Operation When No Cooling or Heating is Required {m3/s-W}
  ,                                       !- Design Supply Air Flow Rate Per Unit of Capacity During Heating Operation When No Cooling or Heating is Required {m3/s-W}
  80,                                     !- Maximum Supply Air Temperature {C}
  21,                                     !- Maximum Outdoor Dry-Bulb Temperature for Supplemental Heater Operation {C}
  sensor,                                 !- Outdoor Dry-Bulb Temperature Sensor Node Name
  3.5,                                    !- Maximum Cycling Rate {cycles/hr}
  90,                                     !- Heat Pump Time Constant {s}
  0.05,                                   !- Fraction of On-Cycle Power Use
  120,                                    !- Heat Pump Fan Delay Time {s}
  2,                                      !- Ancilliary On-Cycle Electric Power {W}
  1;                                      !- Ancilliary Off-Cycle Electric Power {W}

OS:Coil:Heating:WaterToAirHeatPump:VariableSpeedEquationFit,
  {b64c86b4-b567-4135-a5cd-6f54cbdca0c1}, !- Handle
  CC VsdEq Unitary Both,                  !- Name
  ,                                       !- Water-to-Refrigerant HX Water Inlet Node Name
  ,                                       !- Water-to-Refrigerant HX Water Outlet Node Name
  ,                                       !- Indoor Air Inlet Node Name
  ,                                       !- Indoor Air Outlet Node Name
  1,                                      !- Nominal Speed Level {dimensionless}
  autosize,                               !- Rated Heating Capacity At Selected Nominal Speed Level {W}
  autosize,                               !- Rated Air Flow Rate At Selected Nominal Speed Level {m3/s}
  autosize,                               !- Rated Water Flow Rate At Selected Nominal Speed Level {m3/s}
  {a36363d8-639d-45aa-b627-e0bb56340f38}, !- Energy Part Load Fraction Curve Name
  {0a3f1904-210d-4d17-9f72-6c7794fe681b}; !- Speed Data List

OS:Curve:Quadratic,
  {a36363d8-639d-45aa-b627-e0bb56340f38}, !- Handle
  Curve Quadratic 3,                      !- Name
  0.85,                                   !- Coefficient1 Constant
  0.15,                                   !- Coefficient2 x
  0,                                      !- Coefficient3 x**2
  0,                                      !- Minimum Value of x
  1;                                      !- Maximum Value of x

OS:ModelObjectList,
  {0a3f1904-210d-4d17-9f72-6c7794fe681b}, !- Handle
  CC VsdEq Unitary Both Speed Data List;  !- Name

OS:Coil:Heating:WaterToAirHeatPump:VariableSpeedEquationFit,
  {07593fb1-3d18-44da-be7f-844f2cfcf583}, !- Handle
  HC VsdEq Unitary Both,                  !- Name
  ,                                       !- Water-to-Refrigerant HX Water Inlet Node Name
  ,                                       !- Water-to-Refrigerant HX Water Outlet Node Name
  ,                                       !- Indoor Air Inlet Node Name
  ,                                       !- Indoor Air Outlet Node Name
  1,                                      !- Nominal Speed Level {dimensionless}
  autosize,                               !- Rated Heating Capacity At Selected Nominal Speed Level {W}
  autosize,                               !- Rated Air Flow Rate At Selected Nominal Speed Level {m3/s}
  autosize,                               !- Rated Water Flow Rate At Selected Nominal Speed Level {m3/s}
  {c975eb7e-176f-453f-a309-8c434195da7d}, !- Energy Part Load Fraction Curve Name
  {0f66ac78-a623-4eb7-aa65-8ba00f098326}; !- Speed Data List

OS:Curve:Quadratic,
  {c975eb7e-176f-453f-a309-8c434195da7d}, !- Handle
  Curve Quadratic 4,                      !- Name
  0.85,                                   !- Coefficient1 Constant
  0.15,                                   !- Coefficient2 x
  0,                                      !- Coefficient3 x**2
  0,                                      !- Minimum Value of x
  1;                                      !- Maximum Value of x

OS:ModelObjectList,
  {0f66ac78-a623-4eb7-aa65-8ba00f098326}, !- Handle
  HC VsdEq Unitary Both Speed Data List;  !- Name

