
OS:Version,
  {36c73a11-9c06-4f97-90e8-e71929191dc7}, !- Handle
  3.6.1;                                  !- Version Identifier

OS:Coil:Cooling:WaterToAirHeatPump:EquationFit,
  {9739f2db-8508-44f0-b227-4fefd9142102}, !- Handle
  CC Eq Solo,                             !- Name
  ,                                       !- Water Inlet Node Name
  ,                                       !- Water Outlet Node Name
  ,                                       !- Air Inlet Node Name
  ,                                       !- Air Outlet Node Name
  ,                                       !- Rated Air Flow Rate {m3/s}
  ,                                       !- Rated Water Flow Rate {m3/s}
  ,                                       !- Rated Total Cooling Capacity {W}
  ,                                       !- Rated Sensible Cooling Capacity {W}
  ,                                       !- Rated Cooling Coefficient of Performance {W/W}
  30,                                     !- Rated Entering Water Temperature {C}
  27,                                     !- Rated Entering Air Dry-Bulb Temperature {C}
  19,                                     !- Rated Entering Air Wet-Bulb Temperature {C}
  {7a507a35-ab8f-4009-a513-5d4b2e749d59}, !- Total Cooling Capacity Curve Name
  {549d72cf-a1dd-4fca-9176-4e2f08788de6}, !- Sensible Cooling Capacity Curve Name
  {b54c1273-1f55-4bdf-a487-00140d0922c9}, !- Cooling Power Consumption Curve Name
  1.5,                                    !- Nominal Time for Condensate Removal to Begin {s}
  0.02;                                   !- Ratio of Initial Moisture Evaporation Rate and Steady State Latent Capacity {dimensionless}

OS:Curve:QuadLinear,
  {7a507a35-ab8f-4009-a513-5d4b2e749d59}, !- Handle
  TotCoolCapCurve,                        !- Name
  -0.68126221,                            !- Coefficient1 Constant
  1.99529297,                             !- Coefficient2 w
  -0.93611888,                            !- Coefficient3 x
  0.02081177,                             !- Coefficient4 y
  0.008438868,                            !- Coefficient5 z
  -100,                                   !- Minimum Value of w {BasedOnField A2}
  100,                                    !- Maximum Value of w {BasedOnField A2}
  -100,                                   !- Minimum Value of x {BasedOnField A3}
  100,                                    !- Maximum Value of x {BasedOnField A3}
  0,                                      !- Minimum Value of y {BasedOnField A4}
  100,                                    !- Maximum Value of y {BasedOnField A4}
  0,                                      !- Minimum Value of z {BasedOnField A5}
  100;                                    !- Maximum Value of z {BasedOnField A5}

OS:Curve:QuintLinear,
  {549d72cf-a1dd-4fca-9176-4e2f08788de6}, !- Handle
  Curve Quint Linear 1,                   !- Name
  2.24209455,                             !- Coefficient1 Constant
  7.28913391,                             !- Coefficient2 v
  -9.06079896,                            !- Coefficient3 w
  -0.36729404,                            !- Coefficient4 x
  0.218826161,                            !- Coefficient5 y
  0.00901534,                             !- Coefficient6 z
  -100,                                   !- Minimum Value of v {BasedOnField A2}
  100,                                    !- Maximum Value of v {BasedOnField A2}
  -100,                                   !- Minimum Value of w {BasedOnField A2}
  100,                                    !- Maximum Value of w {BasedOnField A2}
  -100,                                   !- Minimum Value of x {BasedOnField A3}
  100,                                    !- Maximum Value of x {BasedOnField A3}
  0,                                      !- Minimum Value of y {BasedOnField A4}
  100,                                    !- Maximum Value of y {BasedOnField A4}
  0,                                      !- Minimum Value of z {BasedOnField A5}
  100;                                    !- Maximum Value of z {BasedOnField A5}

OS:Curve:QuadLinear,
  {b54c1273-1f55-4bdf-a487-00140d0922c9}, !- Handle
  CC Eq Solo coolingPowerConsumptionCurve, !- Name
  -3.20456384,                            !- Coefficient1 Constant
  0.47656454,                             !- Coefficient2 w
  3.16734236,                             !- Coefficient3 x
  0.10244637,                             !- Coefficient4 y
  -0.038132556,                           !- Coefficient5 z
  -100,                                   !- Minimum Value of w {BasedOnField A2}
  100,                                    !- Maximum Value of w {BasedOnField A2}
  -100,                                   !- Minimum Value of x {BasedOnField A3}
  100,                                    !- Maximum Value of x {BasedOnField A3}
  0,                                      !- Minimum Value of y {BasedOnField A4}
  100,                                    !- Maximum Value of y {BasedOnField A4}
  0,                                      !- Minimum Value of z {BasedOnField A5}
  100;                                    !- Maximum Value of z {BasedOnField A5}

OS:Coil:Cooling:WaterToAirHeatPump:VariableSpeedEquationFit,
  {13998366-bef3-4610-9b6f-f73f6ebbc585}, !- Handle
  CC VsdEq Solo,                          !- Name
  ,                                       !- Water-to-Refrigerant HX Water Inlet Node Name
  ,                                       !- Water-to-Refrigerant HX Water Outlet Node Name
  ,                                       !- Indoor Air Inlet Node Name
  ,                                       !- Indoor Air Outlet Node Name
  1,                                      !- Nominal Speed Level {dimensionless}
  autosize,                               !- Gross Rated Total Cooling Capacity At Selected Nominal Speed Level {W}
  autosize,                               !- Rated Air Flow Rate At Selected Nominal Speed Level {m3/s}
  autosize,                               !- Rated Water Flow Rate At Selected Nominal Speed Level {m3/s}
  0,                                      !- Nominal Time for Condensate to Begin Leaving the Coil {s}
  0.02,                                   !- Initial Moisture Evaporation Rate Divided by Steady-State AC Latent Capacity {dimensionless}
  Yes,                                    !- Use Hot Gas Reheat
  {72249a5f-a6e9-4101-9b39-2b2471eba269}, !- Energy Part Load Fraction Curve Name
  {500e1b47-b71c-4117-b5be-d80d8e6b2374}; !- Speed Data List

OS:Curve:Quadratic,
  {72249a5f-a6e9-4101-9b39-2b2471eba269}, !- Handle
  Curve Quadratic 1,                      !- Name
  0.85,                                   !- Coefficient1 Constant
  0.15,                                   !- Coefficient2 x
  0,                                      !- Coefficient3 x**2
  0,                                      !- Minimum Value of x
  1;                                      !- Maximum Value of x

OS:ModelObjectList,
  {500e1b47-b71c-4117-b5be-d80d8e6b2374}, !- Handle
  CC VsdEq Solo Speed Data List;          !- Name

OS:Coil:Cooling:DX:VariableSpeed,
  {90ac0122-105b-4a7f-a910-db48d935b7d4}, !- Handle
  CC DXVsd Solo,                          !- Name
  ,                                       !- Indoor Air Inlet Node Name
  ,                                       !- Indoor Air Outlet Node Name
  1,                                      !- Nominal Speed Level {dimensionless}
  autosize,                               !- Gross Rated Total Cooling Capacity At Selected Nominal Speed Level {W}
  autosize,                               !- Rated Air Flow Rate At Selected Nominal Speed Level {m3/s}
  0,                                      !- Nominal Time for Condensate to Begin Leaving the Coil {s}
  0.02,                                   !- Initial Moisture Evaporation Rate Divided by Steady-State AC Latent Capacity {dimensionless}
  {292f4068-f2a9-4b15-84a6-12bc27c17b4f}, !- Energy Part Load Fraction Curve Name
  ,                                       !- Condenser Air Inlet Node Name
  AirCooled,                              !- Condenser Type
  0,                                      !- Evaporative Condenser Pump Rated Power Consumption {W}
  100,                                    !- Crankcase Heater Capacity {W}
  11,                                     !- Maximum Outdoor Dry-Bulb Temperature for Crankcase Heater Operation {C}
  -25,                                    !- Minimum Outdoor Dry-Bulb Temperature for Compressor Operation {C}
  ,                                       !- Supply Water Storage Tank Name
  ,                                       !- Condensate Collection Water Storage Tank Name
  0,                                      !- Basin Heater Capacity {W/K}
  2,                                      !- Basin Heater Setpoint Temperature {C}
  ,                                       !- Basin Heater Operating Schedule Name
  {5b0a3c49-0f7c-4931-b51b-ab53ee2dedc7}; !- Speed Data List

OS:Curve:Quadratic,
  {292f4068-f2a9-4b15-84a6-12bc27c17b4f}, !- Handle
  CC DXVsd Solo EnergyPartLoadFractionCurve, !- Name
  0.85,                                   !- Coefficient1 Constant
  0.15,                                   !- Coefficient2 x
  0,                                      !- Coefficient3 x**2
  0,                                      !- Minimum Value of x
  1;                                      !- Maximum Value of x

OS:ModelObjectList,
  {5b0a3c49-0f7c-4931-b51b-ab53ee2dedc7}, !- Handle
  CC DXVsd Solo Speed Data List;          !- Name

OS:Coil:Heating:WaterToAirHeatPump:EquationFit,
  {8e908b01-eee0-492a-8a72-69627b3a6231}, !- Handle
  HC Eq Solo,                             !- Name
  ,                                       !- Water Inlet Node Name
  ,                                       !- Water Outlet Node Name
  ,                                       !- Air Inlet Node Name
  ,                                       !- Air Outlet Node Name
  ,                                       !- Rated Air Flow Rate {m3/s}
  ,                                       !- Rated Water Flow Rate {m3/s}
  ,                                       !- Rated Heating Capacity {W}
  ,                                       !- Rated Heating Coefficient of Performance {W/W}
  20,                                     !- Rated Entering Water Temperature {C}
  20,                                     !- Rated Entering Air Dry-Bulb Temperature {C}
  1,                                      !- Ratio of Rated Heating Capacity to Rated Cooling Capacity
  {f2be97cf-1684-45d7-9fea-f825b282929e}, !- Heating Capacity Curve Name
  {0cd20c98-6f3c-4784-9d50-c222fd6514b9}; !- Heating Power Consumption Curve Name

OS:Curve:QuadLinear,
  {f2be97cf-1684-45d7-9fea-f825b282929e}, !- Handle
  Curve Quad Linear 1,                    !- Name
  -5.50102734,                            !- Coefficient1 Constant
  -0.96688754,                            !- Coefficient2 w
  7.70755007,                             !- Coefficient3 x
  0.031928881,                            !- Coefficient4 y
  0.028112522,                            !- Coefficient5 z
  -100,                                   !- Minimum Value of w {BasedOnField A2}
  100,                                    !- Maximum Value of w {BasedOnField A2}
  -100,                                   !- Minimum Value of x {BasedOnField A3}
  100,                                    !- Maximum Value of x {BasedOnField A3}
  0,                                      !- Minimum Value of y {BasedOnField A4}
  100,                                    !- Maximum Value of y {BasedOnField A4}
  0,                                      !- Minimum Value of z {BasedOnField A5}
  100;                                    !- Maximum Value of z {BasedOnField A5}

OS:Curve:QuadLinear,
  {0cd20c98-6f3c-4784-9d50-c222fd6514b9}, !- Handle
  HC Eq Solo heatingPowerConsumptionCurve, !- Name
  -7.47517858,                            !- Coefficient1 Constant
  6.40876653,                             !- Coefficient2 w
  1.99711665,                             !- Coefficient3 x
  -0.050682973,                           !- Coefficient4 y
  0.011385145,                            !- Coefficient5 z
  -100,                                   !- Minimum Value of w {BasedOnField A2}
  100,                                    !- Maximum Value of w {BasedOnField A2}
  -100,                                   !- Minimum Value of x {BasedOnField A3}
  100,                                    !- Maximum Value of x {BasedOnField A3}
  0,                                      !- Minimum Value of y {BasedOnField A4}
  100,                                    !- Maximum Value of y {BasedOnField A4}
  0,                                      !- Minimum Value of z {BasedOnField A5}
  100;                                    !- Maximum Value of z {BasedOnField A5}

OS:Coil:Heating:WaterToAirHeatPump:VariableSpeedEquationFit,
  {b9b8152c-d9f4-4916-a193-bdb31ae4dbae}, !- Handle
  HC VsdEq Solo,                          !- Name
  ,                                       !- Water-to-Refrigerant HX Water Inlet Node Name
  ,                                       !- Water-to-Refrigerant HX Water Outlet Node Name
  ,                                       !- Indoor Air Inlet Node Name
  ,                                       !- Indoor Air Outlet Node Name
  1,                                      !- Nominal Speed Level {dimensionless}
  autosize,                               !- Rated Heating Capacity At Selected Nominal Speed Level {W}
  autosize,                               !- Rated Air Flow Rate At Selected Nominal Speed Level {m3/s}
  autosize,                               !- Rated Water Flow Rate At Selected Nominal Speed Level {m3/s}
  {9c34dffd-e3ae-499e-9632-365aaf0adbae}, !- Energy Part Load Fraction Curve Name
  {e7e4204d-f0c2-431f-877f-92d440ef4610}; !- Speed Data List

OS:Curve:Quadratic,
  {9c34dffd-e3ae-499e-9632-365aaf0adbae}, !- Handle
  Curve Quadratic 2,                      !- Name
  0.85,                                   !- Coefficient1 Constant
  0.15,                                   !- Coefficient2 x
  0,                                      !- Coefficient3 x**2
  0,                                      !- Minimum Value of x
  1;                                      !- Maximum Value of x

OS:ModelObjectList,
  {e7e4204d-f0c2-431f-877f-92d440ef4610}, !- Handle
  HC VsdEq Solo Speed Data List;          !- Name

