
OS:Version,
  {4d06ab1f-b0f1-4147-a478-167b70304d3d}, !- Handle
  3.6.1;                                  !- Version Identifier

OS:Schedule:Constant,
  {7974f778-9352-4eb0-993b-733e53ba308c}, !- Handle
  BasinHeaterOpSch,                       !- Name
  {c64df923-80ee-4126-a2b6-0eccee985830}, !- Schedule Type Limits Name
  0;                                      !- Value

OS:Coil:Cooling:DX:CurveFit:OperatingMode,
  {fcaa83a7-e486-4a70-b99a-6535d069fc8c}, !- Handle
  Coil Cooling DX Curve Fit Operating Mode 1, !- Name
  autosize,                               !- Rated Gross Total Cooling Capacity {W}
  autosize,                               !- Rated Evaporator Air Flow Rate {m3/s}
  autosize,                               !- Rated Condenser Air Flow Rate {m3/s}
  0,                                      !- Maximum Cycling Rate {cycles/hr}
  0,                                      !- Ratio of Initial Moisture Evaporation Rate and Steady State Latent Capacity {dimensionless}
  0,                                      !- Latent Capacity Time Constant {s}
  0,                                      !- Nominal Time for Condensate Removal to Begin {s}
  No,                                     !- Apply Latent Degradation to Speeds Greater than 1
  AirCooled,                              !- Condenser Type
  autosize,                               !- Nominal Evaporative Condenser Pump Power {W}
  ;                                       !- Nominal Speed Number

OS:Coil:Cooling:DX:CurveFit:Performance,
  {236295dd-63e8-4c9f-903f-d3953726d4da}, !- Handle
  Coil Cooling DX Curve Fit Performance 1, !- Name
  100,                                    !- Crankcase Heater Capacity {W}
  11,                                     !- Minimum Outdoor Dry-Bulb Temperature for Compressor Operation {C}
  10,                                     !- Maximum Outdoor Dry-Bulb Temperature for Crankcase Heater Operation {C}
  773.3,                                  !- Unit Internal Static Air Pressure {Pa}
  Discrete,                               !- Capacity Control Method
  0,                                      !- Evaporative Condenser Basin Heater Capacity {W/K}
  2,                                      !- Evaporative Condenser Basin Heater Setpoint Temperature {C}
  {a71d60ac-65ea-4957-909e-5c661ac66cd2}, !- Evaporative Condenser Basin Heater Operating Schedule
  Electricity,                            !- Compressor Fuel Type
  {fcaa83a7-e486-4a70-b99a-6535d069fc8c}, !- Base Operating Mode
  ,                                       !- Alternative Operating Mode 1
  {4538e4e2-40b0-4fa7-9124-09e99f6c1a0c}; !- Alternative Operating Mode 2

OS:Schedule:Constant,
  {a71d60ac-65ea-4957-909e-5c661ac66cd2}, !- Handle
  Always On Discrete,                     !- Name
  {c64df923-80ee-4126-a2b6-0eccee985830}, !- Schedule Type Limits Name
  1;                                      !- Value

OS:ScheduleTypeLimits,
  {c64df923-80ee-4126-a2b6-0eccee985830}, !- Handle
  OnOff,                                  !- Name
  0,                                      !- Lower Limit Value
  1,                                      !- Upper Limit Value
  Discrete,                               !- Numeric Type
  Availability;                           !- Unit Type

OS:Coil:Cooling:DX:CurveFit:OperatingMode,
  {4538e4e2-40b0-4fa7-9124-09e99f6c1a0c}, !- Handle
  AlternativeOpMode2,                     !- Name
  autosize,                               !- Rated Gross Total Cooling Capacity {W}
  autosize,                               !- Rated Evaporator Air Flow Rate {m3/s}
  autosize,                               !- Rated Condenser Air Flow Rate {m3/s}
  0,                                      !- Maximum Cycling Rate {cycles/hr}
  0,                                      !- Ratio of Initial Moisture Evaporation Rate and Steady State Latent Capacity {dimensionless}
  0,                                      !- Latent Capacity Time Constant {s}
  0,                                      !- Nominal Time for Condensate Removal to Begin {s}
  No,                                     !- Apply Latent Degradation to Speeds Greater than 1
  AirCooled,                              !- Condenser Type
  autosize,                               !- Nominal Evaporative Condenser Pump Power {W}
  ;                                       !- Nominal Speed Number

OS:Coil:Cooling:DX:SingleSpeed,
  {40d6ebc4-13a5-4c5e-91c1-b46c39b5f080}, !- Handle
  Coil Cooling DX Single Speed 1,         !- Name
  {a71d60ac-65ea-4957-909e-5c661ac66cd2}, !- Availability Schedule Name
  autosize,                               !- Rated Total Cooling Capacity {W}
  autosize,                               !- Rated Sensible Heat Ratio
  3,                                      !- Rated COP {W/W}
  autosize,                               !- Rated Air Flow Rate {m3/s}
  773.3,                                  !- Rated Evaporator Fan Power Per Volume Flow Rate 2017 {W/(m3/s)}
  934.4,                                  !- Rated Evaporator Fan Power Per Volume Flow Rate 2023 {W/(m3/s)}
  ,                                       !- Air Inlet Node Name
  ,                                       !- Air Outlet Node Name
  {c911ebdd-21b6-403a-9c15-850cd8cc8573}, !- Total Cooling Capacity Function of Temperature Curve Name
  {3cabbb48-bd01-4953-b5bd-37b06919fba3}, !- Total Cooling Capacity Function of Flow Fraction Curve Name
  {2297e678-5c33-49b8-9ed8-c1d381cdfcf9}, !- Energy Input Ratio Function of Temperature Curve Name
  {63d2ec33-370f-44a8-9c5f-0866737497d8}, !- Energy Input Ratio Function of Flow Fraction Curve Name
  {dc01896a-a191-463e-befe-e2426b984625}, !- Part Load Fraction Correlation Curve Name
  -25,                                    !- Minimum Outdoor Dry-Bulb Temperature for Compressor Operation {C}
  0,                                      !- Nominal Time for Condensate Removal to Begin {s}
  0,                                      !- Ratio of Initial Moisture Evaporation Rate and Steady State Latent Capacity {dimensionless}
  0,                                      !- Maximum Cycling Rate {cycles/hr}
  0,                                      !- Latent Capacity Time Constant {s}
  ,                                       !- Condenser Air Inlet Node Name
  AirCooled,                              !- Condenser Type
  0.9,                                    !- Evaporative Condenser Effectiveness {dimensionless}
  autosize,                               !- Evaporative Condenser Air Flow Rate {m3/s}
  autosize,                               !- Evaporative Condenser Pump Rated Power Consumption {W}
  100,                                    !- Crankcase Heater Capacity {W}
  11,                                     !- Maximum Outdoor Dry-Bulb Temperature for Crankcase Heater Operation {C}
  ,                                       !- Supply Water Storage Tank Name
  ,                                       !- Condensate Collection Water Storage Tank Name
  0,                                      !- Basin Heater Capacity {W/K}
  2,                                      !- Basin Heater Setpoint Temperature {C}
  {7974f778-9352-4eb0-993b-733e53ba308c}; !- Basin Heater Operating Schedule Name

OS:Curve:Biquadratic,
  {c911ebdd-21b6-403a-9c15-850cd8cc8573}, !- Handle
  Curve Biquadratic 1,                    !- Name
  0.942587793,                            !- Coefficient1 Constant
  0.009543347,                            !- Coefficient2 x
  0.00068377,                             !- Coefficient3 x**2
  -0.011042676,                           !- Coefficient4 y
  5.249e-06,                              !- Coefficient5 y**2
  -9.72e-06,                              !- Coefficient6 x*y
  17,                                     !- Minimum Value of x
  22,                                     !- Maximum Value of x
  13,                                     !- Minimum Value of y
  46;                                     !- Maximum Value of y

OS:Curve:Quadratic,
  {3cabbb48-bd01-4953-b5bd-37b06919fba3}, !- Handle
  Curve Quadratic 1,                      !- Name
  0.8,                                    !- Coefficient1 Constant
  0.2,                                    !- Coefficient2 x
  0,                                      !- Coefficient3 x**2
  0.5,                                    !- Minimum Value of x
  1.5;                                    !- Maximum Value of x

OS:Curve:Biquadratic,
  {2297e678-5c33-49b8-9ed8-c1d381cdfcf9}, !- Handle
  Curve Biquadratic 2,                    !- Name
  0.342414409,                            !- Coefficient1 Constant
  0.034885008,                            !- Coefficient2 x
  -0.0006237,                             !- Coefficient3 x**2
  0.004977216,                            !- Coefficient4 y
  0.000437951,                            !- Coefficient5 y**2
  -0.000728028,                           !- Coefficient6 x*y
  17,                                     !- Minimum Value of x
  22,                                     !- Maximum Value of x
  13,                                     !- Minimum Value of y
  46;                                     !- Maximum Value of y

OS:Curve:Quadratic,
  {63d2ec33-370f-44a8-9c5f-0866737497d8}, !- Handle
  Curve Quadratic 2,                      !- Name
  1.1552,                                 !- Coefficient1 Constant
  -0.1808,                                !- Coefficient2 x
  0.0256,                                 !- Coefficient3 x**2
  0.5,                                    !- Minimum Value of x
  1.5;                                    !- Maximum Value of x

OS:Curve:Quadratic,
  {dc01896a-a191-463e-befe-e2426b984625}, !- Handle
  Curve Quadratic 3,                      !- Name
  0.85,                                   !- Coefficient1 Constant
  0.15,                                   !- Coefficient2 x
  0,                                      !- Coefficient3 x**2
  0,                                      !- Minimum Value of x
  1;                                      !- Maximum Value of x

OS:Coil:Cooling:DX:TwoStageWithHumidityControlMode,
  {fabffc2f-fd64-4317-9469-0f2e140196d1}, !- Handle
  Coil Cooling DX Two Stage With Humidity Control Mode 1, !- Name
  ,                                       !- Availability Schedule
  ,                                       !- Air Inlet Node Name
  ,                                       !- Air Outlet Node Name
  100,                                    !- Crankcase Heater Capacity {W}
  11,                                     !- Maximum Outdoor Dry-Bulb Temperature for Crankcase Heater Operation {C}
  2,                                      !- Number of Capacity Stages
  1,                                      !- Number of Enhanced Dehumidification Modes
  {b0ab1db3-9be6-4a03-826f-ee631c0412e6}, !- Normal Mode Stage 1 Coil Performance
  {a0768aef-2eca-4b7a-a4bb-89616f830a36}, !- Normal Mode Stage 1 Plus 2 Coil Performance
  {21b434ff-a70b-4ef8-9803-5ea649ec7f43}, !- Dehumidification Mode 1 Stage 1 Coil Performance
  {098ce555-1a42-45ac-b3a2-ef8b2b66decc}, !- Dehumidification Mode 1 Stage 1 Plus 2 Coil Performance
  ,                                       !- Supply Water Storage Tank
  ,                                       !- Condensate Collection Water Storage Tank
  -25,                                    !- Minimum Outdoor Dry-Bulb Temperature for Compressor Operation {C}
  0,                                      !- Basin Heater Capacity {W/K}
  2,                                      !- Basin Heater Setpoint Temperature {C}
  {7974f778-9352-4eb0-993b-733e53ba308c}; !- Basin Heater Operating Schedule

OS:Curve:Biquadratic,
  {ba79d3f8-4262-4078-a905-870484ae6204}, !- Handle
  Curve Biquadratic 3,                    !- Name
  1.067939449,                            !- Coefficient1 Constant
  -0.031261829,                           !- Coefficient2 x
  0.001974308,                            !- Coefficient3 x**2
  -0.002726426,                           !- Coefficient4 y
  -5.52654e-05,                           !- Coefficient5 y**2
  -6.31169e-05,                           !- Coefficient6 x*y
  -100,                                   !- Minimum Value of x
  100,                                    !- Maximum Value of x
  -100,                                   !- Minimum Value of y
  100;                                    !- Maximum Value of y

OS:Curve:Quadratic,
  {168d4cd9-8b81-4d83-8bb1-e94589d1c6ce}, !- Handle
  Curve Quadratic 4,                      !- Name
  0.8,                                    !- Coefficient1 Constant
  0.2,                                    !- Coefficient2 x
  0,                                      !- Coefficient3 x**2
  0.5,                                    !- Minimum Value of x
  1.5;                                    !- Maximum Value of x

OS:Curve:Biquadratic,
  {ca4cc185-7493-4bcf-bcc2-51b375bb08ac}, !- Handle
  Curve Biquadratic 4,                    !- Name
  0.174059889,                            !- Coefficient1 Constant
  0.022281508,                            !- Coefficient2 x
  -0.000134077,                           !- Coefficient3 x**2
  0.028298025,                            !- Coefficient4 y
  0.0004851,                              !- Coefficient5 y**2
  -0.001677095,                           !- Coefficient6 x*y
  -100,                                   !- Minimum Value of x
  100,                                    !- Maximum Value of x
  -100,                                   !- Minimum Value of y
  100;                                    !- Maximum Value of y

OS:Curve:Quadratic,
  {8de19f47-c3e2-462a-ad46-c1c75e6205ec}, !- Handle
  Curve Quadratic 5,                      !- Name
  1.1552,                                 !- Coefficient1 Constant
  -0.1808,                                !- Coefficient2 x
  0.0256,                                 !- Coefficient3 x**2
  0.5,                                    !- Minimum Value of x
  1.5;                                    !- Maximum Value of x

OS:Curve:Quadratic,
  {ce0bbbdb-5ecc-437d-aae0-b8f0d578328a}, !- Handle
  Curve Quadratic 6,                      !- Name
  0.85,                                   !- Coefficient1 Constant
  0.15,                                   !- Coefficient2 x
  0,                                      !- Coefficient3 x**2
  0,                                      !- Minimum Value of x
  1;                                      !- Maximum Value of x

OS:CoilPerformance:DX:Cooling,
  {b0ab1db3-9be6-4a03-826f-ee631c0412e6}, !- Handle
  Coil Performance DX Cooling 1,          !- Name
  autosize,                               !- Gross Rated Total Cooling Capacity {W}
  autosize,                               !- Gross Rated Sensible Heat Ratio
  3,                                      !- Gross Rated Cooling COP {W/W}
  autosize,                               !- Rated Air Flow Rate {m3/s}
  0.5,                                    !- Fraction of Air Flow Bypassed Around Coil
  {ba79d3f8-4262-4078-a905-870484ae6204}, !- Total Cooling Capacity Function of Temperature Curve
  {168d4cd9-8b81-4d83-8bb1-e94589d1c6ce}, !- Total Cooling Capacity Function of Flow Fraction Curve
  {ca4cc185-7493-4bcf-bcc2-51b375bb08ac}, !- Energy Input Ratio Function of Temperature Curve
  {8de19f47-c3e2-462a-ad46-c1c75e6205ec}, !- Energy Input Ratio Function of Flow Fraction Curve
  {ce0bbbdb-5ecc-437d-aae0-b8f0d578328a}, !- Part Load Fraction Correlation Curve
  1000,                                   !- Nominal Time for Condensate Removal to Begin {s}
  1.5,                                    !- Ratio of Initial Moisture Evaporation Rate and Steady State Latent Capacity {dimensionless}
  3,                                      !- Maximum Cycling Rate {cycles/hr}
  45,                                     !- Latent Capacity Time Constant {s}
  ,                                       !- Condenser Air Inlet Node
  AirCooled,                              !- Condenser Type
  0.9,                                    !- Evaporative Condenser Effectiveness {dimensionless}
  autosize,                               !- Evaporative Condenser Air Flow Rate {m3/s}
  autosize,                               !- Evaporative Condenser Pump Rated Power Consumption {W}
  ,                                       !- Sensible Heat Ratio Function of Temperature Curve
  ;                                       !- Sensible Heat Ratio Function of Flow Fraction Curve

OS:Curve:Biquadratic,
  {fc653c33-210f-455d-839b-5b7c17b3a95c}, !- Handle
  Curve Biquadratic 5,                    !- Name
  1.067939449,                            !- Coefficient1 Constant
  -0.031261829,                           !- Coefficient2 x
  0.001974308,                            !- Coefficient3 x**2
  -0.002726426,                           !- Coefficient4 y
  -5.52654e-05,                           !- Coefficient5 y**2
  -6.31169e-05,                           !- Coefficient6 x*y
  -100,                                   !- Minimum Value of x
  100,                                    !- Maximum Value of x
  -100,                                   !- Minimum Value of y
  100;                                    !- Maximum Value of y

OS:Curve:Quadratic,
  {9e4e6a94-e421-4248-92a9-bf17e562e584}, !- Handle
  Curve Quadratic 7,                      !- Name
  0.8,                                    !- Coefficient1 Constant
  0.2,                                    !- Coefficient2 x
  0,                                      !- Coefficient3 x**2
  0.5,                                    !- Minimum Value of x
  1.5;                                    !- Maximum Value of x

OS:Curve:Biquadratic,
  {798a6cd9-4ff5-49dd-9b84-aaae2169700e}, !- Handle
  Curve Biquadratic 6,                    !- Name
  0.174059889,                            !- Coefficient1 Constant
  0.022281508,                            !- Coefficient2 x
  -0.000134077,                           !- Coefficient3 x**2
  0.028298025,                            !- Coefficient4 y
  0.0004851,                              !- Coefficient5 y**2
  -0.001677095,                           !- Coefficient6 x*y
  -100,                                   !- Minimum Value of x
  100,                                    !- Maximum Value of x
  -100,                                   !- Minimum Value of y
  100;                                    !- Maximum Value of y

OS:Curve:Quadratic,
  {ea257574-9b92-45a7-8c46-1b70294aa1a9}, !- Handle
  Curve Quadratic 8,                      !- Name
  1.1552,                                 !- Coefficient1 Constant
  -0.1808,                                !- Coefficient2 x
  0.0256,                                 !- Coefficient3 x**2
  0.5,                                    !- Minimum Value of x
  1.5;                                    !- Maximum Value of x

OS:Curve:Quadratic,
  {dba88ecc-54f9-4b73-a24e-a087033f12dd}, !- Handle
  Curve Quadratic 9,                      !- Name
  0.85,                                   !- Coefficient1 Constant
  0.15,                                   !- Coefficient2 x
  0,                                      !- Coefficient3 x**2
  0,                                      !- Minimum Value of x
  1;                                      !- Maximum Value of x

OS:CoilPerformance:DX:Cooling,
  {a0768aef-2eca-4b7a-a4bb-89616f830a36}, !- Handle
  Coil Performance DX Cooling 2,          !- Name
  autosize,                               !- Gross Rated Total Cooling Capacity {W}
  autosize,                               !- Gross Rated Sensible Heat Ratio
  3,                                      !- Gross Rated Cooling COP {W/W}
  autosize,                               !- Rated Air Flow Rate {m3/s}
  0,                                      !- Fraction of Air Flow Bypassed Around Coil
  {fc653c33-210f-455d-839b-5b7c17b3a95c}, !- Total Cooling Capacity Function of Temperature Curve
  {9e4e6a94-e421-4248-92a9-bf17e562e584}, !- Total Cooling Capacity Function of Flow Fraction Curve
  {798a6cd9-4ff5-49dd-9b84-aaae2169700e}, !- Energy Input Ratio Function of Temperature Curve
  {ea257574-9b92-45a7-8c46-1b70294aa1a9}, !- Energy Input Ratio Function of Flow Fraction Curve
  {dba88ecc-54f9-4b73-a24e-a087033f12dd}, !- Part Load Fraction Correlation Curve
  1000,                                   !- Nominal Time for Condensate Removal to Begin {s}
  1.5,                                    !- Ratio of Initial Moisture Evaporation Rate and Steady State Latent Capacity {dimensionless}
  3,                                      !- Maximum Cycling Rate {cycles/hr}
  45,                                     !- Latent Capacity Time Constant {s}
  ,                                       !- Condenser Air Inlet Node
  AirCooled,                              !- Condenser Type
  0.9,                                    !- Evaporative Condenser Effectiveness {dimensionless}
  autosize,                               !- Evaporative Condenser Air Flow Rate {m3/s}
  autosize,                               !- Evaporative Condenser Pump Rated Power Consumption {W}
  ,                                       !- Sensible Heat Ratio Function of Temperature Curve
  ;                                       !- Sensible Heat Ratio Function of Flow Fraction Curve

OS:Curve:Biquadratic,
  {e2c53295-5460-4ee4-ab71-c34037640674}, !- Handle
  Curve Biquadratic 7,                    !- Name
  0.596779741,                            !- Coefficient1 Constant
  0.034216637,                            !- Coefficient2 x
  0.000113924,                            !- Coefficient3 x**2
  -0.00375859,                            !- Coefficient4 y
  -9.17495e-05,                           !- Coefficient5 y**2
  -8.98373e-05,                           !- Coefficient6 x*y
  -100,                                   !- Minimum Value of x
  100,                                    !- Maximum Value of x
  -100,                                   !- Minimum Value of y
  100;                                    !- Maximum Value of y

OS:Curve:Quadratic,
  {23700cb9-6cec-4e98-8c4d-edc030cdc626}, !- Handle
  Curve Quadratic 10,                     !- Name
  0.8,                                    !- Coefficient1 Constant
  0.2,                                    !- Coefficient2 x
  0,                                      !- Coefficient3 x**2
  0.5,                                    !- Minimum Value of x
  1.5;                                    !- Maximum Value of x

OS:Curve:Biquadratic,
  {31bf8a85-0eb4-4601-9252-a190fdfec52e}, !- Handle
  Curve Biquadratic 8,                    !- Name
  0.435347586,                            !- Coefficient1 Constant
  0.004015641,                            !- Coefficient2 x
  0.000604235,                            !- Coefficient3 x**2
  0.015824043,                            !- Coefficient4 y
  0.000747287,                            !- Coefficient5 y**2
  -0.001779745,                           !- Coefficient6 x*y
  -100,                                   !- Minimum Value of x
  100,                                    !- Maximum Value of x
  -100,                                   !- Minimum Value of y
  100;                                    !- Maximum Value of y

OS:Curve:Quadratic,
  {1cce5ca9-49ed-40a9-91f3-578cddbd3f42}, !- Handle
  Curve Quadratic 11,                     !- Name
  1.1552,                                 !- Coefficient1 Constant
  -0.1808,                                !- Coefficient2 x
  0.0256,                                 !- Coefficient3 x**2
  0.5,                                    !- Minimum Value of x
  1.5;                                    !- Maximum Value of x

OS:Curve:Quadratic,
  {75678adc-222b-438e-8070-1a9d70b2ad03}, !- Handle
  Curve Quadratic 12,                     !- Name
  0.85,                                   !- Coefficient1 Constant
  0.15,                                   !- Coefficient2 x
  0,                                      !- Coefficient3 x**2
  0,                                      !- Minimum Value of x
  1;                                      !- Maximum Value of x

OS:CoilPerformance:DX:Cooling,
  {21b434ff-a70b-4ef8-9803-5ea649ec7f43}, !- Handle
  Coil Performance DX Cooling 3,          !- Name
  autosize,                               !- Gross Rated Total Cooling Capacity {W}
  autosize,                               !- Gross Rated Sensible Heat Ratio
  2.7,                                    !- Gross Rated Cooling COP {W/W}
  autosize,                               !- Rated Air Flow Rate {m3/s}
  0.5,                                    !- Fraction of Air Flow Bypassed Around Coil
  {e2c53295-5460-4ee4-ab71-c34037640674}, !- Total Cooling Capacity Function of Temperature Curve
  {23700cb9-6cec-4e98-8c4d-edc030cdc626}, !- Total Cooling Capacity Function of Flow Fraction Curve
  {31bf8a85-0eb4-4601-9252-a190fdfec52e}, !- Energy Input Ratio Function of Temperature Curve
  {1cce5ca9-49ed-40a9-91f3-578cddbd3f42}, !- Energy Input Ratio Function of Flow Fraction Curve
  {75678adc-222b-438e-8070-1a9d70b2ad03}, !- Part Load Fraction Correlation Curve
  1000,                                   !- Nominal Time for Condensate Removal to Begin {s}
  1.5,                                    !- Ratio of Initial Moisture Evaporation Rate and Steady State Latent Capacity {dimensionless}
  3,                                      !- Maximum Cycling Rate {cycles/hr}
  45,                                     !- Latent Capacity Time Constant {s}
  ,                                       !- Condenser Air Inlet Node
  AirCooled,                              !- Condenser Type
  0.9,                                    !- Evaporative Condenser Effectiveness {dimensionless}
  autosize,                               !- Evaporative Condenser Air Flow Rate {m3/s}
  autosize,                               !- Evaporative Condenser Pump Rated Power Consumption {W}
  ,                                       !- Sensible Heat Ratio Function of Temperature Curve
  ;                                       !- Sensible Heat Ratio Function of Flow Fraction Curve

OS:Curve:Biquadratic,
  {cdbbf82a-7100-4be3-a883-6eca4d74bd19}, !- Handle
  Curve Biquadratic 9,                    !- Name
  0.596779741,                            !- Coefficient1 Constant
  0.034216637,                            !- Coefficient2 x
  0.000113924,                            !- Coefficient3 x**2
  -0.00375859,                            !- Coefficient4 y
  -9.17495e-05,                           !- Coefficient5 y**2
  -8.98373e-05,                           !- Coefficient6 x*y
  -100,                                   !- Minimum Value of x
  100,                                    !- Maximum Value of x
  -100,                                   !- Minimum Value of y
  100;                                    !- Maximum Value of y

OS:Curve:Quadratic,
  {d4da6a7b-ee17-4df0-8ace-229ddf6292f9}, !- Handle
  Curve Quadratic 13,                     !- Name
  0.8,                                    !- Coefficient1 Constant
  0.2,                                    !- Coefficient2 x
  0,                                      !- Coefficient3 x**2
  0.5,                                    !- Minimum Value of x
  1.5;                                    !- Maximum Value of x

OS:Curve:Biquadratic,
  {b0d35d70-46e7-44fe-81a1-04f84c74eeb8}, !- Handle
  Curve Biquadratic 10,                   !- Name
  0.435347586,                            !- Coefficient1 Constant
  0.004015641,                            !- Coefficient2 x
  0.000604235,                            !- Coefficient3 x**2
  0.015824043,                            !- Coefficient4 y
  0.000747287,                            !- Coefficient5 y**2
  -0.001779745,                           !- Coefficient6 x*y
  -100,                                   !- Minimum Value of x
  100,                                    !- Maximum Value of x
  -100,                                   !- Minimum Value of y
  100;                                    !- Maximum Value of y

OS:Curve:Quadratic,
  {21d7bed1-8d2e-4cfd-b10f-75c5f99559ab}, !- Handle
  Curve Quadratic 14,                     !- Name
  1.1552,                                 !- Coefficient1 Constant
  -0.1808,                                !- Coefficient2 x
  0.0256,                                 !- Coefficient3 x**2
  0.5,                                    !- Minimum Value of x
  1.5;                                    !- Maximum Value of x

OS:Curve:Quadratic,
  {c8683159-d80c-4513-9112-5acd6c3a1780}, !- Handle
  Curve Quadratic 15,                     !- Name
  0.85,                                   !- Coefficient1 Constant
  0.15,                                   !- Coefficient2 x
  0,                                      !- Coefficient3 x**2
  0,                                      !- Minimum Value of x
  1;                                      !- Maximum Value of x

OS:CoilPerformance:DX:Cooling,
  {098ce555-1a42-45ac-b3a2-ef8b2b66decc}, !- Handle
  Coil Performance DX Cooling 4,          !- Name
  autosize,                               !- Gross Rated Total Cooling Capacity {W}
  autosize,                               !- Gross Rated Sensible Heat Ratio
  2.7,                                    !- Gross Rated Cooling COP {W/W}
  autosize,                               !- Rated Air Flow Rate {m3/s}
  0,                                      !- Fraction of Air Flow Bypassed Around Coil
  {cdbbf82a-7100-4be3-a883-6eca4d74bd19}, !- Total Cooling Capacity Function of Temperature Curve
  {d4da6a7b-ee17-4df0-8ace-229ddf6292f9}, !- Total Cooling Capacity Function of Flow Fraction Curve
  {b0d35d70-46e7-44fe-81a1-04f84c74eeb8}, !- Energy Input Ratio Function of Temperature Curve
  {21d7bed1-8d2e-4cfd-b10f-75c5f99559ab}, !- Energy Input Ratio Function of Flow Fraction Curve
  {c8683159-d80c-4513-9112-5acd6c3a1780}, !- Part Load Fraction Correlation Curve