
OS:Version,
  {3302470b-4939-4889-b871-20825b3e3067}, !- Handle
  3.6.1;                                  !- Version Identifier

OS:AirLoopHVAC:UnitarySystem,
  {6f98ca78-64cb-4360-93a0-ac972a1b1128}, !- Handle
  Unitary CC Eq,                          !- Name
  Load,                                   !- Control Type
  ,                                       !- Controlling Zone or Thermostat Location
  None,                                   !- Dehumidification Control Type
  ,                                       !- Availability Schedule Name
  ,                                       !- Air Inlet Node Name
  ,                                       !- Air Outlet Node Name
  ,                                       !- Supply Fan Name
  ,                                       !- Fan Placement
  ,                                       !- Supply Air Fan Operating Mode Schedule Name
  ,                                       !- Heating Coil Name
  1,                                      !- DX Heating Coil Sizing Ratio
  {6b63c40f-c043-4e5b-8a0f-dc105a4f0e76}, !- Cooling Coil Name
  No,                                     !- Use DOAS DX Cooling Coil
  2,                                      !- DOAS DX Cooling Coil Leaving Minimum Air Temperature {C}
  SensibleOnlyLoadControl,                !- Latent Load Control
  ,                                       !- Supplemental Heating Coil Name
  ,                                       !- Supply Air Flow Rate Method During Cooling Operation
  Autosize,                               !- Supply Air Flow Rate During Cooling Operation {m3/s}
  ,                                       !- Supply Air Flow Rate Per Floor Area During Cooling Operation {m3/s-m2}
  ,                                       !- Fraction of Autosized Design Cooling Supply Air Flow Rate
  ,                                       !- Design Supply Air Flow Rate Per Unit of Capacity During Cooling Operation {m3/s-W}
  ,                                       !- Supply Air Flow Rate Method During Heating Operation
  Autosize,                               !- Supply Air Flow Rate During Heating Operation {m3/s}
  ,                                       !- Supply Air Flow Rate Per Floor Area during Heating Operation {m3/s-m2}
  ,                                       !- Fraction of Autosized Design Heating Supply Air Flow Rate
  ,                                       !- Design Supply Air Flow Rate Per Unit of Capacity During Heating Operation {m3/s-W}
  ,                                       !- Supply Air Flow Rate Method When No Cooling or Heating is Required
  Autosize,                               !- Supply Air Flow Rate When No Cooling or Heating is Required {m3/s}
  ,                                       !- Supply Air Flow Rate Per Floor Area When No Cooling or Heating is Required {m3/s-m2}
  ,                                       !- Fraction of Autosized Design Cooling Supply Air Flow Rate When No Cooling or Heating is Required
  ,                                       !- Fraction of Autosized Design Heating Supply Air Flow Rate When No Cooling or Heating is Required
  ,                                       !- Design Supply Air Flow Rate Per Unit of Capacity During Cooling Operation When No Cooling or Heating is Required {m3/s-W}
  ,                                       !- Design Supply Air Flow Rate Per Unit of Capacity During Heating Operation When No Cooling or Heating is Required {m3/s-W}
  80,                                     !- Maximum Supply Air Temperature {C}
  21,                                     !- Maximum Outdoor Dry-Bulb Temperature for Supplemental Heater Operation {C}
  sensor,                                 !- Outdoor Dry-Bulb Temperature Sensor Node Name
  3.5,                                    !- Maximum Cycling Rate {cycles/hr}
  90,                                     !- Heat Pump Time Constant {s}
  0.05,                                   !- Fraction of On-Cycle Power Use
  120,                                    !- Heat Pump Fan Delay Time {s}
  2,                                      !- Ancilliary On-Cycle Electric Power {W}
  1;                                      !- Ancilliary Off-Cycle Electric Power {W}

OS:Coil:Cooling:WaterToAirHeatPump:EquationFit,
  {6b63c40f-c043-4e5b-8a0f-dc105a4f0e76}, !- Handle
  CC Eq Unitary,                          !- Name
  ,                                       !- Water Inlet Node Name
  ,                                       !- Water Outlet Node Name
  ,                                       !- Air Inlet Node Name
  ,                                       !- Air Outlet Node Name
  ,                                       !- Rated Air Flow Rate {m3/s}
  ,                                       !- Rated Water Flow Rate {m3/s}
  ,                                       !- Rated Total Cooling Capacity {W}
  ,                                       !- Rated Sensible Cooling Capacity {W}
  ,                                       !- Rated Cooling Coefficient of Performance {W/W}
  30,                                     !- Rated Entering Water Temperature {C}
  27,                                     !- Rated Entering Air Dry-Bulb Temperature {C}
  19,                                     !- Rated Entering Air Wet-Bulb Temperature {C}
  {9cfd5bfc-0934-47b8-be94-b82f643a7b0c}, !- Total Cooling Capacity Curve Name
  {3e8ecf1a-a437-4c7b-a61f-97bea500ac97}, !- Sensible Cooling Capacity Curve Name
  {d18af99c-1fd2-4fa9-9f44-0946d31bf252}, !- Cooling Power Consumption Curve Name
  1.5,                                    !- Nominal Time for Condensate Removal to Begin {s}
  0.02;                                   !- Ratio of Initial Moisture Evaporation Rate and Steady State Latent Capacity {dimensionless}

OS:Curve:QuadLinear,
  {9cfd5bfc-0934-47b8-be94-b82f643a7b0c}, !- Handle
  TotCoolCapCurve,                        !- Name
  -0.68126221,                            !- Coefficient1 Constant
  1.99529297,                             !- Coefficient2 w
  -0.93611888,                            !- Coefficient3 x
  0.02081177,                             !- Coefficient4 y
  0.008438868,                            !- Coefficient5 z
  -100,                                   !- Minimum Value of w {BasedOnField A2}
  100,                                    !- Maximum Value of w {BasedOnField A2}
  -100,                                   !- Minimum Value of x {BasedOnField A3}
  100,                                    !- Maximum Value of x {BasedOnField A3}
  0,                                      !- Minimum Value of y {BasedOnField A4}
  100,                                    !- Maximum Value of y {BasedOnField A4}
  0,                                      !- Minimum Value of z {BasedOnField A5}
  100;                                    !- Maximum Value of z {BasedOnField A5}

OS:Curve:QuintLinear,
  {3e8ecf1a-a437-4c7b-a61f-97bea500ac97}, !- Handle
  Curve Quint Linear 1,                   !- Name
  2.24209455,                             !- Coefficient1 Constant
  7.28913391,                             !- Coefficient2 v
  -9.06079896,                            !- Coefficient3 w
  -0.36729404,                            !- Coefficient4 x
  0.218826161,                            !- Coefficient5 y
  0.00901534,                             !- Coefficient6 z
  -100,                                   !- Minimum Value of v {BasedOnField A2}
  100,                                    !- Maximum Value of v {BasedOnField A2}
  -100,                                   !- Minimum Value of w {BasedOnField A2}
  100,                                    !- Maximum Value of w {BasedOnField A2}
  -100,                                   !- Minimum Value of x {BasedOnField A3}
  100,                                    !- Maximum Value of x {BasedOnField A3}
  0,                                      !- Minimum Value of y {BasedOnField A4}
  100,                                    !- Maximum Value of y {BasedOnField A4}
  0,                                      !- Minimum Value of z {BasedOnField A5}
  100;                                    !- Maximum Value of z {BasedOnField A5}

OS:Curve:QuadLinear,
  {d18af99c-1fd2-4fa9-9f44-0946d31bf252}, !- Handle
  CC Eq Unitary coolingPowerConsumptionCurve, !- Name
  -3.20456384,                            !- Coefficient1 Constant
  0.47656454,                             !- Coefficient2 w
  3.16734236,                             !- Coefficient3 x
  0.10244637,                             !- Coefficient4 y
  -0.038132556,                           !- Coefficient5 z
  -100,                                   !- Minimum Value of w {BasedOnField A2}
  100,                                    !- Maximum Value of w {BasedOnField A2}
  -100,                                   !- Minimum Value of x {BasedOnField A3}
  100,                                    !- Maximum Value of x {BasedOnField A3}
  0,                                      !- Minimum Value of y {BasedOnField A4}
  100,                                    !- Maximum Value of y {BasedOnField A4}
  0,                                      !- Minimum Value of z {BasedOnField A5}
  100;                                    !- Maximum Value of z {BasedOnField A5}

OS:AirLoopHVAC:UnitarySystem,
  {aa30338c-6984-4f86-a63a-4e4f978c37e7}, !- Handle
  Unitary HC Eq,                          !- Name
  Load,                                   !- Control Type
  ,                                       !- Controlling Zone or Thermostat Location
  None,                                   !- Dehumidification Control Type
  ,                                       !- Availability Schedule Name
  ,                                       !- Air Inlet Node Name
  ,                                       !- Air Outlet Node Name
  ,                                       !- Supply Fan Name
  ,                                       !- Fan Placement
  ,                                       !- Supply Air Fan Operating Mode Schedule Name
  {c1c5ec02-4bd2-4677-b29d-82c5259961af}, !- Heating Coil Name
  1,                                      !- DX Heating Coil Sizing Ratio
  ,                                       !- Cooling Coil Name
  No,                                     !- Use DOAS DX Cooling Coil
  2,                                      !- DOAS DX Cooling Coil Leaving Minimum Air Temperature {C}
  SensibleOnlyLoadControl,                !- Latent Load Control
  ,                                       !- Supplemental Heating Coil Name
  ,                                       !- Supply Air Flow Rate Method During Cooling Operation
  Autosize,                               !- Supply Air Flow Rate During Cooling Operation {m3/s}
  ,                                       !- Supply Air Flow Rate Per Floor Area During Cooling Operation {m3/s-m2}
  ,                                       !- Fraction of Autosized Design Cooling Supply Air Flow Rate
  ,                                       !- Design Supply Air Flow Rate Per Unit of Capacity During Cooling Operation {m3/s-W}
  ,                                       !- Supply Air Flow Rate Method During Heating Operation
  Autosize,                               !- Supply Air Flow Rate During Heating Operation {m3/s}
  ,                                       !- Supply Air Flow Rate Per Floor Area during Heating Operation {m3/s-m2}
  ,                                       !- Fraction of Autosized Design Heating Supply Air Flow Rate
  ,                                       !- Design Supply Air Flow Rate Per Unit of Capacity During Heating Operation {m3/s-W}
  ,                                       !- Supply Air Flow Rate Method When No Cooling or Heating is Required
  Autosize,                               !- Supply Air Flow Rate When No Cooling or Heating is Required {m3/s}
  ,                                       !- Supply Air Flow Rate Per Floor Area When No Cooling or Heating is Required {m3/s-m2}
  ,                                       !- Fraction of Autosized Design Cooling Supply Air Flow Rate When No Cooling or Heating is Required
  ,                                       !- Fraction of Autosized Design Heating Supply Air Flow Rate When No Cooling or Heating is Required
  ,                                       !- Design Supply Air Flow Rate Per Unit of Capacity During Cooling Operation When No Cooling or Heating is Required {m3/s-W}
  ,                                       !- Design Supply Air Flow Rate Per Unit of Capacity During Heating Operation When No Cooling or Heating is Required {m3/s-W}
  80,                                     !- Maximum Supply Air Temperature {C}
  21,                                     !- Maximum Outdoor Dry-Bulb Temperature for Supplemental Heater Operation {C}
  sensor,                                 !- Outdoor Dry-Bulb Temperature Sensor Node Name
  3.5,                                    !- Maximum Cycling Rate {cycles/hr}
  90,                                     !- Heat Pump Time Constant {s}
  0.05,                                   !- Fraction of On-Cycle Power Use
  120,                                    !- Heat Pump Fan Delay Time {s}
  2,                                      !- Ancilliary On-Cycle Electric Power {W}
  1;                                      !- Ancilliary Off-Cycle Electric Power {W}

OS:Coil:Heating:WaterToAirHeatPump:EquationFit,
  {c1c5ec02-4bd2-4677-b29d-82c5259961af}, !- Handle
  HC Eq Unitary,                          !- Name
  ,                                       !- Water Inlet Node Name
  ,                                       !- Water Outlet Node Name
  ,                                       !- Air Inlet Node Name
  ,                                       !- Air Outlet Node Name
  ,                                       !- Rated Air Flow Rate {m3/s}
  ,                                       !- Rated Water Flow Rate {m3/s}
  ,                                       !- Rated Heating Capacity {W}
  ,                                       !- Rated Heating Coefficient of Performance {W/W}
  20,                                     !- Rated Entering Water Temperature {C}
  20,                                     !- Rated Entering Air Dry-Bulb Temperature {C}
  1,                                      !- Ratio of Rated Heating Capacity to Rated Cooling Capacity
  {658e02d7-0cdc-43dd-aa91-77939549e57f}, !- Heating Capacity Curve Name
  {9ea0cff9-b563-4d43-9683-a90e91c788f2}; !- Heating Power Consumption Curve Name

OS:Curve:QuadLinear,
  {658e02d7-0cdc-43dd-aa91-77939549e57f}, !- Handle
  Curve Quad Linear 1,                    !- Name
  -5.50102734,                            !- Coefficient1 Constant
  -0.96688754,                            !- Coefficient2 w
  7.70755007,                             !- Coefficient3 x
  0.031928881,                            !- Coefficient4 y
  0.028112522,                            !- Coefficient5 z
  -100,                                   !- Minimum Value of w {BasedOnField A2}
  100,                                    !- Maximum Value of w {BasedOnField A2}
  -100,                                   !- Minimum Value of x {BasedOnField A3}
  100,                                    !- Maximum Value of x {BasedOnField A3}
  0,                                      !- Minimum Value of y {BasedOnField A4}
  100,                                    !- Maximum Value of y {BasedOnField A4}
  0,                                      !- Minimum Value of z {BasedOnField A5}
  100;                                    !- Maximum Value of z {BasedOnField A5}

OS:Curve:QuadLinear,
  {9ea0cff9-b563-4d43-9683-a90e91c788f2}, !- Handle
  HC Eq Unitary heatingPowerConsumptionCurve, !- Name
  -7.47517858,                            !- Coefficient1 Constant
  6.40876653,                             !- Coefficient2 w
  1.99711665,                             !- Coefficient3 x
  -0.050682973,                           !- Coefficient4 y
  0.011385145,                            !- Coefficient5 z
  -100,                                   !- Minimum Value of w {BasedOnField A2}
  100,                                    !- Maximum Value of w {BasedOnField A2}
  -100,                                   !- Minimum Value of x {BasedOnField A3}
  100,                                    !- Maximum Value of x {BasedOnField A3}
  0,                                      !- Minimum Value of y {BasedOnField A4}
  100,                                    !- Maximum Value of y {BasedOnField A4}
  0,                                      !- Minimum Value of z {BasedOnField A5}
  100;                                    !- Maximum Value of z {BasedOnField A5}

OS:AirLoopHVAC:UnitarySystem,
  {5c888d05-5265-4e4e-8eba-8479be101a14}, !- Handle
  Unitary Both Eq,                        !- Name
  Load,                                   !- Control Type
  ,                                       !- Controlling Zone or Thermostat Location
  None,                                   !- Dehumidification Control Type
  ,                                       !- Availability Schedule Name
  ,                                       !- Air Inlet Node Name
  ,                                       !- Air Outlet Node Name
  ,                                       !- Supply Fan Name
  ,                                       !- Fan Placement
  ,                                       !- Supply Air Fan Operating Mode Schedule Name
  {861c44f7-d6be-43c0-9e39-956e2278337e}, !- Heating Coil Name
  1,                                      !- DX Heating Coil Sizing Ratio
  {b84730ba-5538-4772-b094-79d4ad4c726e}, !- Cooling Coil Name
  No,                                     !- Use DOAS DX Cooling Coil
  2,                                      !- DOAS DX Cooling Coil Leaving Minimum Air Temperature {C}
  SensibleOnlyLoadControl,                !- Latent Load Control
  ,                                       !- Supplemental Heating Coil Name
  ,                                       !- Supply Air Flow Rate Method During Cooling Operation
  Autosize,                               !- Supply Air Flow Rate During Cooling Operation {m3/s}
  ,                                       !- Supply Air Flow Rate Per Floor Area During Cooling Operation {m3/s-m2}
  ,                                       !- Fraction of Autosized Design Cooling Supply Air Flow Rate
  ,                                       !- Design Supply Air Flow Rate Per Unit of Capacity During Cooling Operation {m3/s-W}
  ,                                       !- Supply Air Flow Rate Method During Heating Operation
  Autosize,                               !- Supply Air Flow Rate During Heating Operation {m3/s}
  ,                                       !- Supply Air Flow Rate Per Floor Area during Heating Operation {m3/s-m2}
  ,                                       !- Fraction of Autosized Design Heating Supply Air Flow Rate
  ,                                       !- Design Supply Air Flow Rate Per Unit of Capacity During Heating Operation {m3/s-W}
  ,                                       !- Supply Air Flow Rate Method When No Cooling or Heating is Required
  Autosize,                               !- Supply Air Flow Rate When No Cooling or Heating is Required {m3/s}
  ,                                       !- Supply Air Flow Rate Per Floor Area When No Cooling or Heating is Required {m3/s-m2}
  ,                                       !- Fraction of Autosized Design Cooling Supply Air Flow Rate When No Cooling or Heating is Required
  ,                                       !- Fraction of Autosized Design Heating Supply Air Flow Rate When No Cooling or Heating is Required
  ,                                       !- Design Supply Air Flow Rate Per Unit of Capacity During Cooling Operation When No Cooling or Heating is Required {m3/s-W}
  ,                                       !- Design Supply Air Flow Rate Per Unit of Capacity During Heating Operation When No Cooling or Heating is Required {m3/s-W}
  80,                                     !- Maximum Supply Air Temperature {C}
  21,                                     !- Maximum Outdoor Dry-Bulb Temperature for Supplemental Heater Operation {C}
  sensor,                                 !- Outdoor Dry-Bulb Temperature Sensor Node Name
  3.5,                                    !- Maximum Cycling Rate {cycles/hr}
  90,                                     !- Heat Pump Time Constant {s}
  0.05,                                   !- Fraction of On-Cycle Power Use
  120,                                    !- Heat Pump Fan Delay Time {s}
  2,                                      !- Ancilliary On-Cycle Electric Power {W}
  1;                                      !- Ancilliary Off-Cycle Electric Power {W}

OS:Coil:Cooling:WaterToAirHeatPump:EquationFit,
  {b84730ba-5538-4772-b094-79d4ad4c726e}, !- Handle
  CC Eq Unitary Both,                     !- Name
  ,                                       !- Water Inlet Node Name
  ,                                       !- Water Outlet Node Name
  ,                                       !- Air Inlet Node Name
  ,                                       !- Air Outlet Node Name
  ,                                       !- Rated Air Flow Rate {m3/s}
  ,                                       !- Rated Water Flow Rate {m3/s}
  ,                                       !- Rated Total Cooling Capacity {W}
  ,                                       !- Rated Sensible Cooling Capacity {W}
  ,                                       !- Rated Cooling Coefficient of Performance {W/W}
  30,                                     !- Rated Entering Water Temperature {C}
  27,                                     !- Rated Entering Air Dry-Bulb Temperature {C}
  19,                                     !- Rated Entering Air Wet-Bulb Temperature {C}
  {cfe2ea9a-79fc-4381-9876-8e797cf14837}, !- Total Cooling Capacity Curve Name
  {090b4e7f-61f2-4ac8-baca-182495b12e85}, !- Sensible Cooling Capacity Curve Name
  {91707c1a-0291-4213-be15-cecbf5a6dcc7}, !- Cooling Power Consumption Curve Name
  1.5,                                    !- Nominal Time for Condensate Removal to Begin {s}
  0.02;                                   !- Ratio of Initial Moisture Evaporation Rate and Steady State Latent Capacity {dimensionless}

OS:Curve:QuadLinear,
  {cfe2ea9a-79fc-4381-9876-8e797cf14837}, !- Handle
  TotCoolCapCurve 1,                      !- Name
  -0.68126221,                            !- Coefficient1 Constant
  1.99529297,                             !- Coefficient2 w
  -0.93611888,                            !- Coefficient3 x
  0.02081177,                             !- Coefficient4 y
  0.008438868,                            !- Coefficient5 z
  -100,                                   !- Minimum Value of w {BasedOnField A2}
  100,                                    !- Maximum Value of w {BasedOnField A2}
  -100,                                   !- Minimum Value of x {BasedOnField A3}
  100,                                    !- Maximum Value of x {BasedOnField A3}
  0,                                      !- Minimum Value of y {BasedOnField A4}
  100,                                    !- Maximum Value of y {BasedOnField A4}
  0,                                      !- Minimum Value of z {BasedOnField A5}
  100;                                    !- Maximum Value of z {BasedOnField A5}

OS:Curve:QuintLinear,
  {090b4e7f-61f2-4ac8-baca-182495b12e85}, !- Handle
  Curve Quint Linear 2,                   !- Name
  2.24209455,                             !- Coefficient1 Constant
  7.28913391,                             !- Coefficient2 v
  -9.06079896,                            !- Coefficient3 w
  -0.36729404,                            !- Coefficient4 x
  0.218826161,                            !- Coefficient5 y
  0.00901534,                             !- Coefficient6 z
  -100,                                   !- Minimum Value of v {BasedOnField A2}
  100,                                    !- Maximum Value of v {BasedOnField A2}
  -100,                                   !- Minimum Value of w {BasedOnField A2}
  100,                                    !- Maximum Value of w {BasedOnField A2}
  -100,                                   !- Minimum Value of x {BasedOnField A3}
  100,                                    !- Maximum Value of x {BasedOnField A3}
  0,                                      !- Minimum Value of y {BasedOnField A4}
  100,                                    !- Maximum Value of y {BasedOnField A4}
  0,                                      !- Minimum Value of z {BasedOnField A5}
  100;                                    !- Maximum Value of z {BasedOnField A5}

OS:Curve:QuadLinear,
  {91707c1a-0291-4213-be15-cecbf5a6dcc7}, !- Handle
  CC Eq Unitary Both coolingPowerConsumptionCurve, !- Name
  -3.20456384,                            !- Coefficient1 Constant
  0.47656454,                             !- Coefficient2 w
  3.16734236,                             !- Coefficient3 x
  0.10244637,                             !- Coefficient4 y
  -0.038132556,                           !- Coefficient5 z
  -100,                                   !- Minimum Value of w {BasedOnField A2}
  100,                                    !- Maximum Value of w {BasedOnField A2}
  -100,                                   !- Minimum Value of x {BasedOnField A3}
  100,                                    !- Maximum Value of x {BasedOnField A3}
  0,                                      !- Minimum Value of y {BasedOnField A4}
  100,                                    !- Maximum Value of y {BasedOnField A4}
  0,                                      !- Minimum Value of z {BasedOnField A5}
  100;                                    !- Maximum Value of z {BasedOnField A5}

OS:Coil:Heating:WaterToAirHeatPump:EquationFit,
  {861c44f7-d6be-43c0-9e39-956e2278337e}, !- Handle
  HC Eq Unitary Both,                     !- Name
  ,                                       !- Water Inlet Node Name
  ,                                       !- Water Outlet Node Name
  ,                                       !- Air Inlet Node Name
  ,                                       !- Air Outlet Node Name
  ,                                       !- Rated Air Flow Rate {m3/s}
  ,                                       !- Rated Water Flow Rate {m3/s}
  ,                                       !- Rated Heating Capacity {W}
  ,                                       !- Rated Heating Coefficient of Performance {W/W}
  20,                                     !- Rated Entering Water Temperature {C}
  20,                                     !- Rated Entering Air Dry-Bulb Temperature {C}
  1,                                      !- Ratio of Rated Heating Capacity to Rated Cooling Capacity
  {b57f43a0-f0d5-4565-8da5-aabf6be9103c}, !- Heating Capacity Curve Name
  {d383764f-2704-449b-a61e-c0d9540b8ae2}; !- Heating Power Consumption Curve Name

OS:Curve:QuadLinear,
  {b57f43a0-f0d5-4565-8da5-aabf6be9103c}, !- Handle
  Curve Quad Linear 2,                    !- Name
  -5.50102734,                            !- Coefficient1 Constant
  -0.96688754,                            !- Coefficient2 w
  7.70755007,                             !- Coefficient3 x
  0.031928881,                            !- Coefficient4 y
  0.028112522,                            !- Coefficient5 z
  -100,                                   !- Minimum Value of w {BasedOnField A2}
  100,                                    !- Maximum Value of w {BasedOnField A2}
  -100,                                   !- Minimum Value of x {BasedOnField A3}
  100,                                    !- Maximum Value of x {BasedOnField A3}
  0,                                      !- Minimum Value of y {BasedOnField A4}
  100,                                    !- Maximum Value of y {BasedOnField A4}
  0,                                      !- Minimum Value of z {BasedOnField A5}
  100;                                    !- Maximum Value of z {BasedOnField A5}

OS:Curve:QuadLinear,
  {d383764f-2704-449b-a61e-c0d9540b8ae2}, !- Handle
  HC Eq Unitary Both heatingPowerConsumptionCurve, !- Name
  -7.47517858,                            !- Coefficient1 Constant
  6.40876653,                             !- Coefficient2 w
  1.99711665,                             !- Coefficient3 x
  -0.050682973,                           !- Coefficient4 y
  0.011385145,                            !- Coefficient5 z
  -100,                                   !- Minimum Value of w {BasedOnField A2}
  100,                                    !- Maximum Value of w {BasedOnField A2}
  -100,                                   !- Minimum Value of x {BasedOnField A3}
  100,                                    !- Maximum Value of x {BasedOnField A3}
  0,                                      !- Minimum Value of y {BasedOnField A4}
  100,                                    !- Maximum Value of y {BasedOnField A4}
  0,                                      !- Minimum Value of z {BasedOnField A5}
  100;                                    !- Maximum Value of z {BasedOnField A5}

