
OS:Version,
  {7bb8e7dc-8ca0-4aa5-afa5-818ef0a502ca}, ! Handle
  0.8.5;                    ! Version Identifier

OS:SimulationControl,
  {2eadde78-7911-4fd2-8987-658544a339a8}, ! Handle
  Yes,                      ! Do Zone Sizing Calculation
  Yes,                      ! Do System Sizing Calculation
  ,                         ! Do Plant Sizing Calculation
  No,                       ! Run Simulation for Sizing Periods
  Yes;                      ! Run Simulation for Weather File Run Periods

OS:Timestep,
  {4f33a096-b698-4a8a-a111-166343c68610}, ! Handle
  6;                        ! Number of Timesteps per Hour

OS:RunPeriod,
  {e7624385-fe88-4140-b2d4-bfae6fc77b2e}, ! Handle
  Run Period 1,             ! Name
  1,                        ! Begin Month
  1,                        ! Begin Day of Month
  12,                       ! End Month
  31,                       ! End Day of Month
  No,                       ! Use Weather File Holidays and Special Days
  No,                       ! Use Weather File Daylight Saving Period
  No,                       ! Apply Weekend Holiday Rule
  Yes,                      ! Use Weather File Rain Indicators
  Yes,                      ! Use Weather File Snow Indicators
  1;                        ! Number of Times Runperiod to be Repeated

OS:SurfaceConvectionAlgorithm:Inside,
  {28451871-86ad-4c54-92ae-ffdf1a9a91d7}, ! Handle
  TARP;                     ! Algorithm

OS:SurfaceConvectionAlgorithm:Outside,
  {9a2064e1-644a-4af2-89d8-9f1014c6e496}, ! Handle
  DOE-2;                    ! Algorithm

OS:HeatBalanceAlgorithm,
  {009f465d-5192-4aee-94e3-ec01ef329555}, ! Handle
  ConductionTransferFunction, ! Algorithm
  200;                      ! Surface Temperature Upper Limit {F}

OS:ZoneAirHeatBalanceAlgorithm,
  {048a2869-411b-475d-aa14-dcb129c829b5}, ! Handle
  AnalyticalSolution;       ! Algorithm

OS:ConvergenceLimits,
  {837a351e-3764-4647-b650-af20029008ca}; ! Handle

OS:ShadowCalculation,
  {53f57e1f-2dc3-436c-81c2-929dd951a112}, ! Handle
  7,                        ! Calculation Frequency
  15000;                    ! Maximum Figures in Shadow Overlap Calculations

OS:Site,
  {cace0e61-790d-4171-8953-a2a642220743}, ! Handle
  Site 1,                   ! Name
  41.77,                    ! Latitude {deg}
  -87.75,                   ! Longitude {deg}
  -6,                       ! Time Zone {hr}
  190,                      ! Elevation {m}
  ;                         ! Terrain

OS:Site:GroundTemperature:BuildingSurface,
  {edd2d291-21ec-4da3-bb04-5984bca01ca7}, ! Handle
  19.527,                   ! January Ground Temperature {C}
  19.502,                   ! February Ground Temperature {C}
  19.536,                   ! March Ground Temperature {C}
  19.598,                   ! April Ground Temperature {C}
  20.002,                   ! May Ground Temperature {C}
  21.64,                    ! June Ground Temperature {C}
  22.225,                   ! July Ground Temperature {C}
  22.375,                   ! August Ground Temperature {C}
  21.449,                   ! September Ground Temperature {C}
  20.121,                   ! October Ground Temperature {C}
  19.802,                   ! November Ground Temperature {C}
  19.633;                   ! December Ground Temperature {C}

OS:Site:WaterMainsTemperature,
  {699db928-6b46-4851-9e00-e317673ac1cc}, ! Handle
  Correlation,              ! Calculation Method
  ,                         ! Temperature Schedule Name
  9.69,                     ! Annual Average Outdoor Air Temperature {C}
  28.1;                     ! Maximum Difference In Monthly Average Outdoor Air Temperatures {deltaC}

OS:SizingPeriod:DesignDay,
  {cec9b2eb-6abf-4c41-ae12-8945b259eaec}, ! Handle
  Sizing Period Design Day 1, ! Name
  -20.6,                    ! Maximum Dry-Bulb Temperature {C}
  0,                        ! Daily Dry-Bulb Temperature Range {deltaC}
  -20.6,                    ! Humidity Indicating Conditions at Maximum Dry-Bulb {BasedOnField A3}
  99063,                    ! Barometric Pressure {Pa}
  4.9,                      ! Wind Speed {m/s}
  270,                      ! Wind Direction {deg}
  0,                        ! Sky Clearness
  0,                        ! Rain Indicator
  0,                        ! Snow Indicator
  21,                       ! Day of Month
  1,                        ! Month
  WinterDesignDay,          ! Day Type
  0,                        ! Daylight Saving Time Indicator
  WetBulb,                  ! Humidity Indicating Type
  ,                         ! Humidity Indicating Day Schedule Name
  DefaultMultipliers,       ! Dry-Bulb Temperature Range Modifier Type
  ,                         ! Dry-Bulb Temperature Range Modifier Schedule Name
  AshraeClearSky;           ! Solar Model Indicator

OS:SizingPeriod:DesignDay,
  {3c4a6e3b-f620-4003-9d48-2070b9abf24b}, ! Handle
  Sizing Period Design Day 2, ! Name
  33.2,                     ! Maximum Dry-Bulb Temperature {C}
  10.7,                     ! Daily Dry-Bulb Temperature Range {deltaC}
  23.8,                     ! Humidity Indicating Conditions at Maximum Dry-Bulb {BasedOnField A3}
  99063,                    ! Barometric Pressure {Pa}
  5.3,                      ! Wind Speed {m/s}
  230,                      ! Wind Direction {deg}
  1,                        ! Sky Clearness
  0,                        ! Rain Indicator
  0,                        ! Snow Indicator
  21,                       ! Day of Month
  7,                        ! Month
  SummerDesignDay,          ! Day Type
  0,                        ! Daylight Saving Time Indicator
  WetBulb,                  ! Humidity Indicating Type
  ,                         ! Humidity Indicating Day Schedule Name
  DefaultMultipliers,       ! Dry-Bulb Temperature Range Modifier Type
  ,                         ! Dry-Bulb Temperature Range Modifier Schedule Name
  AshraeClearSky;           ! Solar Model Indicator

OS:ScheduleTypeLimits,
  {1cdf1677-9c1e-4fa3-9945-ef1009f612d5}, ! Handle
  Temperature,              ! Name
  -60,                      ! Lower Limit Value {BasedOnField A4}
  200,                      ! Upper Limit Value {BasedOnField A4}
  CONTINUOUS,               ! Numeric Type
  Temperature;              ! Unit Type

OS:DefaultScheduleSet,
  {a204b5a3-63df-474f-a4b2-0597fb226fbb}, ! Handle
  Default Schedules,        ! Name
  ,                         ! Hours of Operation Schedule Name
  {be088e32-8a08-411f-925f-39eab29ce2ec}, ! Number of People Schedule Name
  {9f6ff6fa-9a41-4614-b07a-4b7e7f2748b6}, ! People Activity Level Schedule Name
  {d7e7332e-3a0e-4d65-9b47-2f9279588f14}, ! Lighting Schedule Name
  {09b22aa1-483d-4deb-9919-68d66412e6fd}, ! Electric Equipment Schedule Name
  {98d670b1-533f-414c-ae4b-332ff4ba4326}, ! Gas Equipment Schedule Name
  {4d66ad4e-464d-4c18-a50a-7ce6d6d50b5b}, ! Hot Water Equipment Schedule Name
  {1aea9ed9-c442-4c53-b34c-9feccc27136b}, ! Infiltration Schedule Name
  ,                         ! Steam Equipment Schedule Name
  ;                         ! Other Equipment Schedule Name

OS:Schedule:Ruleset,
  {be088e32-8a08-411f-925f-39eab29ce2ec}, ! Handle
  Medium Office Number of People Schedule, ! Name
  {8f099613-80f8-4610-af58-47e6e7862143}, ! Schedule Type Limits Name
  {93cb21fc-62ad-4d91-ab4d-1a0a15c952e0}, ! Default Day Schedule Name
  {3bcad390-a250-4371-aeef-491a2fde3f93}; ! Summer Design Day Schedule Name

OS:Schedule:Day,
  {93cb21fc-62ad-4d91-ab4d-1a0a15c952e0}, ! Handle
  Medium Office Number of People All Other Days Schedule, ! Name
  {8f099613-80f8-4610-af58-47e6e7862143}, ! Schedule Type Limits Name
  ,                         ! Interpolate to Timestep
  24,                       ! Hour 1
  0,                        ! Minute 1
  0;                        ! Value Until Time 1

OS:Schedule:Day,
  {2b8d46f4-b83f-4e91-83ea-424487333fe3}, ! Handle
  Medium Office Number of People Summer Design Day Schedule, ! Name
  ,                         ! Schedule Type Limits Name
  ,                         ! Interpolate to Timestep
  6,                        ! Hour 1
  0,                        ! Minute 1
  0,                        ! Value Until Time 1
  22,                       ! Hour 2
  0,                        ! Minute 2
  1,                        ! Value Until Time 2
  24,                       ! Hour 3
  0,                        ! Minute 3
  0.05;                     ! Value Until Time 3

OS:Schedule:Day,
  {3bcad390-a250-4371-aeef-491a2fde3f93}, ! Handle
  Medium Office Number of People Summer Design Day Schedule 1, ! Name
  {8f099613-80f8-4610-af58-47e6e7862143}, ! Schedule Type Limits Name
  ,                         ! Interpolate to Timestep
  6,                        ! Hour 1
  0,                        ! Minute 1
  0,                        ! Value Until Time 1
  22,                       ! Hour 2
  0,                        ! Minute 2
  1,                        ! Value Until Time 2
  24,                       ! Hour 3
  0,                        ! Minute 3
  0.05;                     ! Value Until Time 3

OS:Schedule:Rule,
  {acc56405-5d0a-4169-af58-048c56ca0443}, ! Handle
  Medium Office Number of People Schedule Weekdays Rule, ! Name
  {be088e32-8a08-411f-925f-39eab29ce2ec}, ! Schedule Ruleset Name
  1,                        ! Rule Order
  {02e9f709-d1c3-4ddd-8345-2f25ff3968bf}, ! Day Schedule Name
  ,                         ! Apply Sunday
  Yes,                      ! Apply Monday
  Yes,                      ! Apply Tuesday
  Yes,                      ! Apply Wednesday
  Yes,                      ! Apply Thursday
  Yes;                      ! Apply Friday

OS:Schedule:Day,
  {02e9f709-d1c3-4ddd-8345-2f25ff3968bf}, ! Handle
  Medium Office Number of People Weekdays Schedule, ! Name
  {8f099613-80f8-4610-af58-47e6e7862143}, ! Schedule Type Limits Name
  ,                         ! Interpolate to Timestep
  6,                        ! Hour 1
  0,                        ! Minute 1
  0,                        ! Value Until Time 1
  7,                        ! Hour 2
  0,                        ! Minute 2
  0.1,                      ! Value Until Time 2
  8,                        ! Hour 3
  0,                        ! Minute 3
  0.2,                      ! Value Until Time 3
  12,                       ! Hour 4
  0,                        ! Minute 4
  0.95,                     ! Value Until Time 4
  13,                       ! Hour 5
  0,                        ! Minute 5
  0.5,                      ! Value Until Time 5
  17,                       ! Hour 6
  0,                        ! Minute 6
  0.95,                     ! Value Until Time 6
  18,                       ! Hour 7
  0,                        ! Minute 7
  0.7,                      ! Value Until Time 7
  20,                       ! Hour 8
  0,                        ! Minute 8
  0.4,                      ! Value Until Time 8
  22,                       ! Hour 9
  0,                        ! Minute 9
  0.1,                      ! Value Until Time 9
  24,                       ! Hour 10
  0,                        ! Minute 10
  0.05;                     ! Value Until Time 10

OS:Schedule:Rule,
  {d577d947-2823-4c8f-b097-dee19840b71b}, ! Handle
  Medium Office Number of People Schedule Saturday Rule, ! Name
  {be088e32-8a08-411f-925f-39eab29ce2ec}, ! Schedule Ruleset Name
  0,                        ! Rule Order
  {74b2113e-b18e-44c6-b9d7-b102133c4243}, ! Day Schedule Name
  ,                         ! Apply Sunday
  ,                         ! Apply Monday
  ,                         ! Apply Tuesday
  ,                         ! Apply Wednesday
  ,                         ! Apply Thursday
  ,                         ! Apply Friday
  Yes;                      ! Apply Saturday

OS:Schedule:Day,
  {74b2113e-b18e-44c6-b9d7-b102133c4243}, ! Handle
  Medium Office Number of People Saturday Schedule, ! Name
  {8f099613-80f8-4610-af58-47e6e7862143}, ! Schedule Type Limits Name
  ,                         ! Interpolate to Timestep
  6,                        ! Hour 1
  0,                        ! Minute 1
  0,                        ! Value Until Time 1
  8,                        ! Hour 2
  0,                        ! Minute 2
  0.1,                      ! Value Until Time 2
  14,                       ! Hour 3
  0,                        ! Minute 3
  0.5,                      ! Value Until Time 3
  17,                       ! Hour 4
  0,                        ! Minute 4
  0.1,                      ! Value Until Time 4
  24,                       ! Hour 5
  0,                        ! Minute 5
  0;                        ! Value Until Time 5

OS:ScheduleTypeLimits,
  {8f099613-80f8-4610-af58-47e6e7862143}, ! Handle
  Fractional,               ! Name
  0,                        ! Lower Limit Value {BasedOnField A4}
  1,                        ! Upper Limit Value {BasedOnField A4}
  Continuous;               ! Numeric Type

OS:Schedule:Ruleset,
  {9f6ff6fa-9a41-4614-b07a-4b7e7f2748b6}, ! Handle
  Medium Office People Activity Level Schedule, ! Name
  {069dfa0b-8009-438d-b68a-7eb64994ea1b}, ! Schedule Type Limits Name
  {42c13bce-b874-4599-8929-a8d9bf2bef21}; ! Default Day Schedule Name

OS:Schedule:Day,
  {42c13bce-b874-4599-8929-a8d9bf2bef21}, ! Handle
  Medium Office People Activity Level All Days Schedule, ! Name
  {069dfa0b-8009-438d-b68a-7eb64994ea1b}, ! Schedule Type Limits Name
  ,                         ! Interpolate to Timestep
  24,                       ! Hour 1
  0,                        ! Minute 1
  120;                      ! Value Until Time 1

OS:ScheduleTypeLimits,
  {069dfa0b-8009-438d-b68a-7eb64994ea1b}, ! Handle
  ActivityLevel,            ! Name
  0,                        ! Lower Limit Value {BasedOnField A4}
  ,                         ! Upper Limit Value {BasedOnField A4}
  Continuous,               ! Numeric Type
  ActivityLevel;            ! Unit Type

OS:Schedule:Ruleset,
  {d7e7332e-3a0e-4d65-9b47-2f9279588f14}, ! Handle
  Medium Office Lighting Schedule, ! Name
  {8f099613-80f8-4610-af58-47e6e7862143}, ! Schedule Type Limits Name
  {784f7abc-2664-4afe-81c1-e5f49154de80}, ! Default Day Schedule Name
  {fb574b40-8a4a-488c-a87a-27c7b494b157}, ! Summer Design Day Schedule Name
  {c68b3b04-0b1d-4671-a08f-22f9f7c3cc82}; ! Winter Design Day Schedule Name

OS:Schedule:Day,
  {784f7abc-2664-4afe-81c1-e5f49154de80}, ! Handle
  Medium Office Lighting All Other Days Schedule, ! Name
  {8f099613-80f8-4610-af58-47e6e7862143}, ! Schedule Type Limits Name
  ,                         ! Interpolate to Timestep
  24,                       ! Hour 1
  0,                        ! Minute 1
  0.05;                     ! Value Until Time 1

OS:Schedule:Day,
  {2ab825ee-91a9-4fc1-bc4c-993014a38391}, ! Handle
  Medium Office Lighting Summer Design Day Schedule, ! Name
  ,                         ! Schedule Type Limits Name
  ,                         ! Interpolate to Timestep
  6,                        ! Hour 1
  0,                        ! Minute 1
  1,                        ! Value Until Time 1
  24,                       ! Hour 2
  0,                        ! Minute 2
  0;                        ! Value Until Time 2

OS:Schedule:Day,
  {fb574b40-8a4a-488c-a87a-27c7b494b157}, ! Handle
  Medium Office Lighting Summer Design Day Schedule 1, ! Name
  {8f099613-80f8-4610-af58-47e6e7862143}, ! Schedule Type Limits Name
  ,                         ! Interpolate to Timestep
  6,                        ! Hour 1
  0,                        ! Minute 1
  1,                        ! Value Until Time 1
  24,                       ! Hour 2
  0,                        ! Minute 2
  0;                        ! Value Until Time 2

OS:Schedule:Day,
  {1cea08f3-229d-46a7-a7a1-c8bdb479dcb5}, ! Handle
  Medium Office Lighting Winter Design Day Schedule, ! Name
  ,                         ! Schedule Type Limits Name
  ,                         ! Interpolate to Timestep
  24,                       ! Hour 1
  0,                        ! Minute 1
  0;                        ! Value Until Time 1

OS:Schedule:Day,
  {c68b3b04-0b1d-4671-a08f-22f9f7c3cc82}, ! Handle
  Medium Office Lighting Winter Design Day Schedule 1, ! Name
  {8f099613-80f8-4610-af58-47e6e7862143}, ! Schedule Type Limits Name
  ,                         ! Interpolate to Timestep
  24,                       ! Hour 1
  0,                        ! Minute 1
  0;                        ! Value Until Time 1

OS:Schedule:Rule,
  {baf164e3-168c-4e5a-a321-77b0f2a7fc3b}, ! Handle
  Medium Office Lighting Schedule Weekdays Rule, ! Name
  {d7e7332e-3a0e-4d65-9b47-2f9279588f14}, ! Schedule Ruleset Name
  1,                        ! Rule Order
  {4e850c2f-23ee-4965-b399-45421c651cc4}, ! Day Schedule Name
  ,                         ! Apply Sunday
  Yes,                      ! Apply Monday
  Yes,                      ! Apply Tuesday
  Yes,                      ! Apply Wednesday
  Yes,                      ! Apply Thursday
  Yes;                      ! Apply Friday

OS:Schedule:Day,
  {4e850c2f-23ee-4965-b399-45421c651cc4}, ! Handle
  Medium Office Lighting Weekdays Schedule, ! Name
  {8f099613-80f8-4610-af58-47e6e7862143}, ! Schedule Type Limits Name
  ,                         ! Interpolate to Timestep
  5,                        ! Hour 1
  0,                        ! Minute 1
  0.05,                     ! Value Until Time 1
  7,                        ! Hour 2
  0,                        ! Minute 2
  0.1,                      ! Value Until Time 2
  8,                        ! Hour 3
  0,                        ! Minute 3
  0.3,                      ! Value Until Time 3
  17,                       ! Hour 4
  0,                        ! Minute 4
  0.9,                      ! Value Until Time 4
  18,                       ! Hour 5
  0,                        ! Minute 5
  0.7,                      ! Value Until Time 5
  20,                       ! Hour 6
  0,                        ! Minute 6
  0.5,                      ! Value Until Time 6
  22,                       ! Hour 7
  0,                        ! Minute 7
  0.3,                      ! Value Until Time 7
  23,                       ! Hour 8
  0,                        ! Minute 8
  0.1,                      ! Value Until Time 8
  24,                       ! Hour 9
  0,                        ! Minute 9
  0.05;                     ! Value Until Time 9

OS:Schedule:Rule,
  {19fe6e25-4ffd-4903-9047-8f19c4fb45d5}, ! Handle
  Medium Office Lighting Schedule Saturday Rule, ! Name
  {d7e7332e-3a0e-4d65-9b47-2f9279588f14}, ! Schedule Ruleset Name
  0,                        ! Rule Order
  {d0fc0317-c499-4282-99dc-c83dee12b695}, ! Day Schedule Name
  ,                         ! Apply Sunday
  ,                         ! Apply Monday
  ,                         ! Apply Tuesday
  ,                         ! Apply Wednesday
  ,                         ! Apply Thursday
  ,                         ! Apply Friday
  Yes;                      ! Apply Saturday

OS:Schedule:Day,
  {d0fc0317-c499-4282-99dc-c83dee12b695}, ! Handle
  Medium Office Lighting Saturday Schedule, ! Name
  {8f099613-80f8-4610-af58-47e6e7862143}, ! Schedule Type Limits Name
  ,                         ! Interpolate to Timestep
  6,                        ! Hour 1
  0,                        ! Minute 1
  0.05,                     ! Value Until Time 1
  8,                        ! Hour 2
  0,                        ! Minute 2
  0.1,                      ! Value Until Time 2
  14,                       ! Hour 3
  0,                        ! Minute 3
  0.5,                      ! Value Until Time 3
  17,                       ! Hour 4
  0,                        ! Minute 4
  0.15,                     ! Value Until Time 4
  24,                       ! Hour 5
  0,                        ! Minute 5
  0.05;                     ! Value Until Time 5

OS:Schedule:Ruleset,
  {09b22aa1-483d-4deb-9919-68d66412e6fd}, ! Handle
  Medium Office Electric Equipment Schedule, ! Name
  {8f099613-80f8-4610-af58-47e6e7862143}, ! Schedule Type Limits Name
  {da8c2e21-f77d-469d-a15c-1c36d384c86b}, ! Default Day Schedule Name
  {a92e9532-4a36-4ec2-aa1b-614631938e10}, ! Summer Design Day Schedule Name
  {4e0f7464-8c56-4efb-bd6d-b3736cf4a7d0}; ! Winter Design Day Schedule Name

OS:Schedule:Day,
  {da8c2e21-f77d-469d-a15c-1c36d384c86b}, ! Handle
  Medium Office Electric Equipment All Other Days Schedule, ! Name
  {8f099613-80f8-4610-af58-47e6e7862143}, ! Schedule Type Limits Name
  ,                         ! Interpolate to Timestep
  24,                       ! Hour 1
  0,                        ! Minute 1
  0.3;                      ! Value Until Time 1

OS:Schedule:Day,
  {0a11b443-92c4-44b7-a18b-9dd9daa633d5}, ! Handle
  Medium Office Electric Equipment Summer Design Day Schedule, ! Name
  ,                         ! Schedule Type Limits Name
  ,                         ! Interpolate to Timestep
  6,                        ! Hour 1
  0,                        ! Minute 1
  1,                        ! Value Until Time 1
  24,                       ! Hour 2
  0,                        ! Minute 2
  0;                        ! Value Until Time 2

OS:Schedule:Day,
  {a92e9532-4a36-4ec2-aa1b-614631938e10}, ! Handle
  Medium Office Electric Equipment Summer Design Day Schedule 1, ! Name
  {8f099613-80f8-4610-af58-47e6e7862143}, ! Schedule Type Limits Name
  ,                         ! Interpolate to Timestep
  6,                        ! Hour 1
  0,                        ! Minute 1
  1,                        ! Value Until Time 1
  24,                       ! Hour 2
  0,                        ! Minute 2
  0;                        ! Value Until Time 2

OS:Schedule:Day,
  {cc6c7120-bda2-4744-a084-2ce3a7109428}, ! Handle
  Medium Office Electric Equipment Winter Design Day Schedule, ! Name
  ,                         ! Schedule Type Limits Name
  ,                         ! Interpolate to Timestep
  24,                       ! Hour 1
  0,                        ! Minute 1
  0;                        ! Value Until Time 1

OS:Schedule:Day,
  {4e0f7464-8c56-4efb-bd6d-b3736cf4a7d0}, ! Handle
  Medium Office Electric Equipment Winter Design Day Schedule 1, ! Name
  {8f099613-80f8-4610-af58-47e6e7862143}, ! Schedule Type Limits Name
  ,                         ! Interpolate to Timestep
  24,                       ! Hour 1
  0,                        ! Minute 1
  0;                        ! Value Until Time 1

OS:Schedule:Rule,
  {a0852e2c-ae25-47f6-b18a-5a0e64b4188f}, ! Handle
  Medium Office Electric Equipment Schedule Weekdays Rule, ! Name
  {09b22aa1-483d-4deb-9919-68d66412e6fd}, ! Schedule Ruleset Name
  1,                        ! Rule Order
  {d6471857-abdf-4001-b67c-52a2fba51682}, ! Day Schedule Name
  ,                         ! Apply Sunday
  Yes,                      ! Apply Monday
  Yes,                      ! Apply Tuesday
  Yes,                      ! Apply Wednesday
  Yes,                      ! Apply Thursday
  Yes;                      ! Apply Friday

OS:Schedule:Day,
  {d6471857-abdf-4001-b67c-52a2fba51682}, ! Handle
  Medium Office Electric Equipment Weekdays Schedule, ! Name
  {8f099613-80f8-4610-af58-47e6e7862143}, ! Schedule Type Limits Name
  ,                         ! Interpolate to Timestep
  8,                        ! Hour 1
  0,                        ! Minute 1
  0.4,                      ! Value Until Time 1
  12,                       ! Hour 2
  0,                        ! Minute 2
  0.9,                      ! Value Until Time 2
  13,                       ! Hour 3
  0,                        ! Minute 3
  0.8,                      ! Value Until Time 3
  17,                       ! Hour 4
  0,                        ! Minute 4
  0.9,                      ! Value Until Time 4
  18,                       ! Hour 5
  0,                        ! Minute 5
  0.8,                      ! Value Until Time 5
  20,                       ! Hour 6
  0,                        ! Minute 6
  0.6,                      ! Value Until Time 6
  22,                       ! Hour 7
  0,                        ! Minute 7
  0.5,                      ! Value Until Time 7
  24,                       ! Hour 8
  0,                        ! Minute 8
  0.4;                      ! Value Until Time 8

OS:Schedule:Rule,
  {d02a8d83-b8da-4a48-9bb4-95e73e38fc15}, ! Handle
  Medium Office Electric Equipment Schedule Saturday Rule, ! Name
  {09b22aa1-483d-4deb-9919-68d66412e6fd}, ! Schedule Ruleset Name
  0,                        ! Rule Order
  {cae10b7d-92fa-4fd2-a3e7-e572394e01f3}, ! Day Schedule Name
  ,                         ! Apply Sunday
  ,                         ! Apply Monday
  ,                         ! Apply Tuesday
  ,                         ! Apply Wednesday
  ,                         ! Apply Thursday
  ,                         ! Apply Friday
  Yes;                      ! Apply Saturday

OS:Schedule:Day,
  {cae10b7d-92fa-4fd2-a3e7-e572394e01f3}, ! Handle
  Medium Office Electric Equipment Saturday Schedule, ! Name
  {8f099613-80f8-4610-af58-47e6e7862143}, ! Schedule Type Limits Name
  ,                         ! Interpolate to Timestep
  6,                        ! Hour 1
  0,                        ! Minute 1
  0.3,                      ! Value Until Time 1
  8,                        ! Hour 2
  0,                        ! Minute 2
  0.4,                      ! Value Until Time 2
  14,                       ! Hour 3
  0,                        ! Minute 3
  0.5,                      ! Value Until Time 3
  17,                       ! Hour 4
  0,                        ! Minute 4
  0.35,                     ! Value Until Time 4
  24,                       ! Hour 5
  0,                        ! Minute 5
  0.3;                      ! Value Until Time 5

OS:Schedule:Ruleset,
  {98d670b1-533f-414c-ae4b-332ff4ba4326}, ! Handle
  Medium Office Gas Equipment Schedule, ! Name
  {8f099613-80f8-4610-af58-47e6e7862143}, ! Schedule Type Limits Name
  {f9b892ea-b722-4c37-a571-10aed3c67d94}, ! Default Day Schedule Name
  {a3bfd93c-0bd1-4140-a123-a13ca3b545b2}, ! Summer Design Day Schedule Name
  {bc9b840c-5caf-4b72-beeb-a85ffa04fae0}; ! Winter Design Day Schedule Name

OS:Schedule:Day,
  {f9b892ea-b722-4c37-a571-10aed3c67d94}, ! Handle
  Medium Office Gas Equipment All Other Days Schedule, ! Name
  {8f099613-80f8-4610-af58-47e6e7862143}, ! Schedule Type Limits Name
  ,                         ! Interpolate to Timestep
  24,                       ! Hour 1
  0,                        ! Minute 1
  0.3;                      ! Value Until Time 1

OS:Schedule:Day,
  {71e02e8b-d206-4c2e-b608-66489e0ed0ad}, ! Handle
  Medium Office Gas Equipment Summer Design Day Schedule, ! Name
  ,                         ! Schedule Type Limits Name
  ,                         ! Interpolate to Timestep
  6,                        ! Hour 1
  0,                        ! Minute 1
  1,                        ! Value Until Time 1
  24,                       ! Hour 2
  0,                        ! Minute 2
  0;                        ! Value Until Time 2

OS:Schedule:Day,
  {a3bfd93c-0bd1-4140-a123-a13ca3b545b2}, ! Handle
  Medium Office Gas Equipment Summer Design Day Schedule 1, ! Name
  {8f099613-80f8-4610-af58-47e6e7862143}, ! Schedule Type Limits Name
  ,                         ! Interpolate to Timestep
  6,                        ! Hour 1
  0,                        ! Minute 1
  1,                        ! Value Until Time 1
  24,                       ! Hour 2
  0,                        ! Minute 2
  0;                        ! Value Until Time 2

OS:Schedule:Day,
  {4f834c30-7a41-4102-980b-fc264f9ef18e}, ! Handle
  Medium Office Gas Equipment Winter Design Day Schedule, ! Name
  ,                         ! Schedule Type Limits Name
  ,                         ! Interpolate to Timestep
  24,                       ! Hour 1
  0,                        ! Minute 1
  0;                        ! Value Until Time 1

OS:Schedule:Day,
  {bc9b840c-5caf-4b72-beeb-a85ffa04fae0}, ! Handle
  Medium Office Gas Equipment Winter Design Day Schedule 1, ! Name
  {8f099613-80f8-4610-af58-47e6e7862143}, ! Schedule Type Limits Name
  ,                         ! Interpolate to Timestep
  24,                       ! Hour 1
  0,                        ! Minute 1
  0;                        ! Value Until Time 1

OS:Schedule:Rule,
  {5bfebebe-ff76-4788-84a8-79bf01184ba6}, ! Handle
  Medium Office Gas Equipment Schedule Weekdays Rule, ! Name
  {98d670b1-533f-414c-ae4b-332ff4ba4326}, ! Schedule Ruleset Name
  1,                        ! Rule Order
  {dcf93d10-78f4-4678-bec4-62431dcf51d9}, ! Day Schedule Name
  ,                         ! Apply Sunday
  Yes,                      ! Apply Monday
  Yes,                      ! Apply Tuesday
  Yes,                      ! Apply Wednesday
  Yes,                      ! Apply Thursday
  Yes;                      ! Apply Friday

OS:Schedule:Day,
  {dcf93d10-78f4-4678-bec4-62431dcf51d9}, ! Handle
  Medium Office Gas Equipment Weekdays Schedule, ! Name
  {8f099613-80f8-4610-af58-47e6e7862143}, ! Schedule Type Limits Name
  ,                         ! Interpolate to Timestep
  8,                        ! Hour 1
  0,                        ! Minute 1
  0.4,                      ! Value Until Time 1
  12,                       ! Hour 2
  0,                        ! Minute 2
  0.9,                      ! Value Until Time 2
  13,                       ! Hour 3
  0,                        ! Minute 3
  0.8,                      ! Value Until Time 3
  17,                       ! Hour 4
  0,                        ! Minute 4
  0.9,                      ! Value Until Time 4
  18,                       ! Hour 5
  0,                        ! Minute 5
  0.8,                      ! Value Until Time 5
  20,                       ! Hour 6
  0,                        ! Minute 6
  0.6,                      ! Value Until Time 6
  22,                       ! Hour 7
  0,                        ! Minute 7
  0.5,                      ! Value Until Time 7
  24,                       ! Hour 8
  0,                        ! Minute 8