
OS:Version,
  {4523f6b2-ecc3-4af6-b6c8-923af21a4e82}, !- Handle
  1.11.2;                                 !- Version Identifier

OS:SimulationControl,
  {2ce0b7de-9d80-440c-bb24-6da560d55290}, !- Handle
  Yes,                                    !- Do Zone Sizing Calculation
  Yes,                                    !- Do System Sizing Calculation
  ,                                       !- Do Plant Sizing Calculation
  No,                                     !- Run Simulation for Sizing Periods
  Yes;                                    !- Run Simulation for Weather File Run Periods

OS:Timestep,
  {ecfc1007-4213-4997-b542-923bed49c0f6}, !- Handle
  6;                                      !- Number of Timesteps per Hour

OS:RunPeriod,
  {9c3a48da-7666-4adf-8538-1ce6dc71deb1}, !- Handle
  Run Period 1,                           !- Name
  1,                                      !- Begin Month
  1,                                      !- Begin Day of Month
  12,                                     !- End Month
  31,                                     !- End Day of Month
  No,                                     !- Use Weather File Holidays and Special Days
  No,                                     !- Use Weather File Daylight Saving Period
  No,                                     !- Apply Weekend Holiday Rule
  Yes,                                    !- Use Weather File Rain Indicators
  Yes,                                    !- Use Weather File Snow Indicators
  1;                                      !- Number of Times Runperiod to be Repeated

OS:SurfaceConvectionAlgorithm:Inside,
  {ec5699d1-13e3-4690-b0c8-dd60da7a5ffc}, !- Handle
  TARP;                                   !- Algorithm

OS:SurfaceConvectionAlgorithm:Outside,
  {64ec0568-f518-4489-9f1b-d0e2b518a943}, !- Handle
  DOE-2;                                  !- Algorithm

OS:HeatBalanceAlgorithm,
  {0d574d64-1704-4f60-bcc0-988a85d40358}, !- Handle
  ConductionTransferFunction,             !- Algorithm
  200;                                    !- Surface Temperature Upper Limit {C}

OS:ZoneAirHeatBalanceAlgorithm,
  {b216e268-d058-43ff-a2b3-1de7421f6e14}, !- Handle
  ThirdOrderBackwardDifference;           !- Algorithm

OS:ConvergenceLimits,
  {24d80886-cd96-4036-b40d-0564ecd9708d}, !- Handle
  1;                                      !- Minimum System Timestep {minutes}

OS:ShadowCalculation,
  {88531a52-b851-4e54-a2d6-9681dc27302b}, !- Handle
  20,                                     !- Calculation Frequency
  15000;                                  !- Maximum Figures in Shadow Overlap Calculations

OS:Site,
  {d17ab50d-6adf-4d08-bce8-ebee1848fef6}, !- Handle
  Site 1,                                 !- Name
  41.77,                                  !- Latitude {deg}
  -87.75,                                 !- Longitude {deg}
  -6,                                     !- Time Zone {hr}
  190,                                    !- Elevation {m}
  ;                                       !- Terrain

OS:Site:GroundTemperature:BuildingSurface,
  {c49f1933-a4c8-4cde-ac7a-a2abde358de1}, !- Handle
  19.527,                                 !- January Ground Temperature {C}
  19.502,                                 !- February Ground Temperature {C}
  19.536,                                 !- March Ground Temperature {C}
  19.598,                                 !- April Ground Temperature {C}
  20.002,                                 !- May Ground Temperature {C}
  21.64,                                  !- June Ground Temperature {C}
  22.225,                                 !- July Ground Temperature {C}
  22.375,                                 !- August Ground Temperature {C}
  21.449,                                 !- September Ground Temperature {C}
  20.121,                                 !- October Ground Temperature {C}
  19.802,                                 !- November Ground Temperature {C}
  19.633;                                 !- December Ground Temperature {C}

OS:Site:WaterMainsTemperature,
  {6ea97345-d916-4937-b104-f85eb2912733}, !- Handle
  Correlation,                            !- Calculation Method
  ,                                       !- Temperature Schedule Name
  9.69,                                   !- Annual Average Outdoor Air Temperature {C}
  28.1;                                   !- Maximum Difference In Monthly Average Outdoor Air Temperatures {deltaC}

OS:SizingPeriod:DesignDay,
  {7b50f1a0-a98a-42ce-a19a-6fd2050f5a34}, !- Handle
  Sizing Period Design Day 1,             !- Name
  -20.6,                                  !- Maximum Dry-Bulb Temperature {C}
  0,                                      !- Daily Dry-Bulb Temperature Range {deltaC}
  -20.6,                                  !- Humidity Indicating Conditions at Maximum Dry-Bulb
  99063,                                  !- Barometric Pressure {Pa}
  4.9,                                    !- Wind Speed {m/s}
  270,                                    !- Wind Direction {deg}
  0,                                      !- Sky Clearness
  0,                                      !- Rain Indicator
  0,                                      !- Snow Indicator
  21,                                     !- Day of Month
  1,                                      !- Month
  WinterDesignDay,                        !- Day Type
  0,                                      !- Daylight Saving Time Indicator
  WetBulb,                                !- Humidity Indicating Type
  ,                                       !- Humidity Indicating Day Schedule Name
  DefaultMultipliers,                     !- Dry-Bulb Temperature Range Modifier Type
  ,                                       !- Dry-Bulb Temperature Range Modifier Schedule Name
  AshraeClearSky;                         !- Solar Model Indicator

OS:SizingPeriod:DesignDay,
  {dfd95a7e-cb51-42f7-af25-15c99fe7d8df}, !- Handle
  Sizing Period Design Day 2,             !- Name
  33.2,                                   !- Maximum Dry-Bulb Temperature {C}
  10.7,                                   !- Daily Dry-Bulb Temperature Range {deltaC}
  23.8,                                   !- Humidity Indicating Conditions at Maximum Dry-Bulb
  99063,                                  !- Barometric Pressure {Pa}
  5.3,                                    !- Wind Speed {m/s}
  230,                                    !- Wind Direction {deg}
  1,                                      !- Sky Clearness
  0,                                      !- Rain Indicator
  0,                                      !- Snow Indicator
  21,                                     !- Day of Month
  7,                                      !- Month
  SummerDesignDay,                        !- Day Type
  0,                                      !- Daylight Saving Time Indicator
  WetBulb,                                !- Humidity Indicating Type
  ,                                       !- Humidity Indicating Day Schedule Name
  DefaultMultipliers,                     !- Dry-Bulb Temperature Range Modifier Type
  ,                                       !- Dry-Bulb Temperature Range Modifier Schedule Name
  AshraeClearSky;                         !- Solar Model Indicator

OS:ScheduleTypeLimits,
  {53cf3a60-7b15-46a0-9845-8f5901214e57}, !- Handle
  Temperature,                            !- Name
  -60,                                    !- Lower Limit Value
  200,                                    !- Upper Limit Value
  CONTINUOUS,                             !- Numeric Type
  Temperature;                            !- Unit Type

OS:DefaultScheduleSet,
  {b30ed53c-eb60-411f-8d33-603ceb0f088e}, !- Handle
  Default Schedules,                      !- Name
  ,                                       !- Hours of Operation Schedule Name
  {5e4c74b6-9252-4c61-b4fc-9d305271406b}, !- Number of People Schedule Name
  {194f8625-f4cb-4543-9221-944c13a48241}, !- People Activity Level Schedule Name
  {6c9e53be-6f0b-4f1b-95ac-f9bf5f1661aa}, !- Lighting Schedule Name
  {fcef2451-6804-4400-a5f7-1b1680854bf7}, !- Electric Equipment Schedule Name
  {8b11b1e5-db38-4293-9ff7-1aa255ff1fb7}, !- Gas Equipment Schedule Name
  {99349523-b792-4ff7-b2df-8526edc7a9b5}, !- Hot Water Equipment Schedule Name
  {db32f00c-8ecb-44f0-bbcb-1e025c768f17}, !- Infiltration Schedule Name
  ,                                       !- Steam Equipment Schedule Name
  ;                                       !- Other Equipment Schedule Name

OS:Schedule:Ruleset,
  {5e4c74b6-9252-4c61-b4fc-9d305271406b}, !- Handle
  Medium Office Number of People Schedule, !- Name
  {af5c5dd4-bff9-4c91-bcc3-6a07e180428e}, !- Schedule Type Limits Name
  {8d606c23-7727-44da-ab1b-b3caf633fa1f}, !- Default Day Schedule Name
  {3d8c59af-927f-4309-b725-5bbdd071f9fa}; !- Summer Design Day Schedule Name

OS:Schedule:Day,
  {8d606c23-7727-44da-ab1b-b3caf633fa1f}, !- Handle
  Medium Office Number of People All Other Days Schedule, !- Name
  {af5c5dd4-bff9-4c91-bcc3-6a07e180428e}, !- Schedule Type Limits Name
  ,                                       !- Interpolate to Timestep
  24,                                     !- Hour 1
  0,                                      !- Minute 1
  0;                                      !- Value Until Time 1

OS:Schedule:Day,
  {8c9a1382-4e97-4b4d-bfb0-bda81f8b1485}, !- Handle
  Medium Office Number of People Summer Design Day Schedule, !- Name
  ,                                       !- Schedule Type Limits Name
  ,                                       !- Interpolate to Timestep
  6,                                      !- Hour 1
  0,                                      !- Minute 1
  0,                                      !- Value Until Time 1
  22,                                     !- Hour 2
  0,                                      !- Minute 2
  1,                                      !- Value Until Time 2
  24,                                     !- Hour 3
  0,                                      !- Minute 3
  0.05;                                   !- Value Until Time 3

OS:Schedule:Day,
  {3d8c59af-927f-4309-b725-5bbdd071f9fa}, !- Handle
  Medium Office Number of People Summer Design Day Schedule 1, !- Name
  {af5c5dd4-bff9-4c91-bcc3-6a07e180428e}, !- Schedule Type Limits Name
  ,                                       !- Interpolate to Timestep
  6,                                      !- Hour 1
  0,                                      !- Minute 1
  0,                                      !- Value Until Time 1
  22,                                     !- Hour 2
  0,                                      !- Minute 2
  1,                                      !- Value Until Time 2
  24,                                     !- Hour 3
  0,                                      !- Minute 3
  0.05;                                   !- Value Until Time 3

OS:Schedule:Rule,
  {ea654d64-fb52-4b48-8e3c-46530b88ccde}, !- Handle
  Medium Office Number of People Schedule Weekdays Rule, !- Name
  {5e4c74b6-9252-4c61-b4fc-9d305271406b}, !- Schedule Ruleset Name
  1,                                      !- Rule Order
  {d925d19d-c318-41d1-a4f9-f76719a36940}, !- Day Schedule Name
  ,                                       !- Apply Sunday
  Yes,                                    !- Apply Monday
  Yes,                                    !- Apply Tuesday
  Yes,                                    !- Apply Wednesday
  Yes,                                    !- Apply Thursday
  Yes;                                    !- Apply Friday

OS:Schedule:Day,
  {d925d19d-c318-41d1-a4f9-f76719a36940}, !- Handle
  Medium Office Number of People Weekdays Schedule, !- Name
  {af5c5dd4-bff9-4c91-bcc3-6a07e180428e}, !- Schedule Type Limits Name
  ,                                       !- Interpolate to Timestep
  6,                                      !- Hour 1
  0,                                      !- Minute 1
  0,                                      !- Value Until Time 1
  7,                                      !- Hour 2
  0,                                      !- Minute 2
  0.1,                                    !- Value Until Time 2
  8,                                      !- Hour 3
  0,                                      !- Minute 3
  0.2,                                    !- Value Until Time 3
  12,                                     !- Hour 4
  0,                                      !- Minute 4
  0.95,                                   !- Value Until Time 4
  13,                                     !- Hour 5
  0,                                      !- Minute 5
  0.5,                                    !- Value Until Time 5
  17,                                     !- Hour 6
  0,                                      !- Minute 6
  0.95,                                   !- Value Until Time 6
  18,                                     !- Hour 7
  0,                                      !- Minute 7
  0.7,                                    !- Value Until Time 7
  20,                                     !- Hour 8
  0,                                      !- Minute 8
  0.4,                                    !- Value Until Time 8
  22,                                     !- Hour 9
  0,                                      !- Minute 9
  0.1,                                    !- Value Until Time 9
  24,                                     !- Hour 10
  0,                                      !- Minute 10
  0.05;                                   !- Value Until Time 10

OS:Schedule:Rule,
  {07b7fb27-452a-460e-9a43-ae586668d627}, !- Handle
  Medium Office Number of People Schedule Saturday Rule, !- Name
  {5e4c74b6-9252-4c61-b4fc-9d305271406b}, !- Schedule Ruleset Name
  0,                                      !- Rule Order
  {223f661b-98da-41f6-a947-ccb1b090f721}, !- Day Schedule Name
  ,                                       !- Apply Sunday
  ,                                       !- Apply Monday
  ,                                       !- Apply Tuesday
  ,                                       !- Apply Wednesday
  ,                                       !- Apply Thursday
  ,                                       !- Apply Friday
  Yes;                                    !- Apply Saturday

OS:Schedule:Day,
  {223f661b-98da-41f6-a947-ccb1b090f721}, !- Handle
  Medium Office Number of People Saturday Schedule, !- Name
  {af5c5dd4-bff9-4c91-bcc3-6a07e180428e}, !- Schedule Type Limits Name
  ,                                       !- Interpolate to Timestep
  6,                                      !- Hour 1
  0,                                      !- Minute 1
  0,                                      !- Value Until Time 1
  8,                                      !- Hour 2
  0,                                      !- Minute 2
  0.1,                                    !- Value Until Time 2
  14,                                     !- Hour 3
  0,                                      !- Minute 3
  0.5,                                    !- Value Until Time 3
  17,                                     !- Hour 4
  0,                                      !- Minute 4
  0.1,                                    !- Value Until Time 4
  24,                                     !- Hour 5
  0,                                      !- Minute 5
  0;                                      !- Value Until Time 5

OS:ScheduleTypeLimits,
  {af5c5dd4-bff9-4c91-bcc3-6a07e180428e}, !- Handle
  Fractional,                             !- Name
  0,                                      !- Lower Limit Value
  1,                                      !- Upper Limit Value
  Continuous;                             !- Numeric Type

OS:Schedule:Ruleset,
  {194f8625-f4cb-4543-9221-944c13a48241}, !- Handle
  Medium Office People Activity Level Schedule, !- Name
  {0e31145b-f993-4199-bb9e-331fc898e324}, !- Schedule Type Limits Name
  {34ba185a-6f87-4e5a-bc88-a91a27cb4b98}; !- Default Day Schedule Name

OS:Schedule:Day,
  {34ba185a-6f87-4e5a-bc88-a91a27cb4b98}, !- Handle
  Medium Office People Activity Level All Days Schedule, !- Name
  {0e31145b-f993-4199-bb9e-331fc898e324}, !- Schedule Type Limits Name
  ,                                       !- Interpolate to Timestep
  24,                                     !- Hour 1
  0,                                      !- Minute 1
  120;                                    !- Value Until Time 1

OS:ScheduleTypeLimits,
  {0e31145b-f993-4199-bb9e-331fc898e324}, !- Handle
  ActivityLevel,                          !- Name
  0,                                      !- Lower Limit Value
  ,                                       !- Upper Limit Value
  Continuous,                             !- Numeric Type
  ActivityLevel;                          !- Unit Type

OS:Schedule:Ruleset,
  {6c9e53be-6f0b-4f1b-95ac-f9bf5f1661aa}, !- Handle
  Medium Office Lighting Schedule,        !- Name
  {af5c5dd4-bff9-4c91-bcc3-6a07e180428e}, !- Schedule Type Limits Name
  {90c8f03a-9174-46a0-bf92-0505da95a9dd}, !- Default Day Schedule Name
  {bfd3e1c7-07ec-4361-bf61-4b3f9a799200}, !- Summer Design Day Schedule Name
  {47b5499c-4977-4101-988e-33083511e0a6}; !- Winter Design Day Schedule Name

OS:Schedule:Day,
  {90c8f03a-9174-46a0-bf92-0505da95a9dd}, !- Handle
  Medium Office Lighting All Other Days Schedule, !- Name
  {af5c5dd4-bff9-4c91-bcc3-6a07e180428e}, !- Schedule Type Limits Name
  ,                                       !- Interpolate to Timestep
  24,                                     !- Hour 1
  0,                                      !- Minute 1
  0.05;                                   !- Value Until Time 1

OS:Schedule:Day,
  {f23a9e1f-ac1a-4814-a1f3-676fb5a99175}, !- Handle
  Medium Office Lighting Summer Design Day Schedule, !- Name
  ,                                       !- Schedule Type Limits Name
  ,                                       !- Interpolate to Timestep
  6,                                      !- Hour 1
  0,                                      !- Minute 1
  1,                                      !- Value Until Time 1
  24,                                     !- Hour 2
  0,                                      !- Minute 2
  0;                                      !- Value Until Time 2

OS:Schedule:Day,
  {bfd3e1c7-07ec-4361-bf61-4b3f9a799200}, !- Handle
  Medium Office Lighting Summer Design Day Schedule 1, !- Name
  {af5c5dd4-bff9-4c91-bcc3-6a07e180428e}, !- Schedule Type Limits Name
  ,                                       !- Interpolate to Timestep
  6,                                      !- Hour 1
  0,                                      !- Minute 1
  1,                                      !- Value Until Time 1
  24,                                     !- Hour 2
  0,                                      !- Minute 2
  0;                                      !- Value Until Time 2

OS:Schedule:Day,
  {8222deb4-d40a-4319-b478-e327cc27945c}, !- Handle
  Medium Office Lighting Winter Design Day Schedule, !- Name
  ,                                       !- Schedule Type Limits Name
  ,                                       !- Interpolate to Timestep
  24,                                     !- Hour 1
  0,                                      !- Minute 1
  0;                                      !- Value Until Time 1

OS:Schedule:Day,
  {47b5499c-4977-4101-988e-33083511e0a6}, !- Handle
  Medium Office Lighting Winter Design Day Schedule 1, !- Name
  {af5c5dd4-bff9-4c91-bcc3-6a07e180428e}, !- Schedule Type Limits Name
  ,                                       !- Interpolate to Timestep
  24,                                     !- Hour 1
  0,                                      !- Minute 1
  0;                                      !- Value Until Time 1

OS:Schedule:Rule,
  {ebc3f51a-375b-4f51-91dc-ec1dacf9b940}, !- Handle
  Medium Office Lighting Schedule Weekdays Rule, !- Name
  {6c9e53be-6f0b-4f1b-95ac-f9bf5f1661aa}, !- Schedule Ruleset Name
  1,                                      !- Rule Order
  {8167f6ab-ced7-474a-b9a4-efc17a6a343b}, !- Day Schedule Name
  ,                                       !- Apply Sunday
  Yes,                                    !- Apply Monday
  Yes,                                    !- Apply Tuesday
  Yes,                                    !- Apply Wednesday
  Yes,                                    !- Apply Thursday
  Yes;                                    !- Apply Friday

OS:Schedule:Day,
  {8167f6ab-ced7-474a-b9a4-efc17a6a343b}, !- Handle
  Medium Office Lighting Weekdays Schedule, !- Name
  {af5c5dd4-bff9-4c91-bcc3-6a07e180428e}, !- Schedule Type Limits Name
  ,                                       !- Interpolate to Timestep
  5,                                      !- Hour 1
  0,                                      !- Minute 1
  0.05,                                   !- Value Until Time 1
  7,                                      !- Hour 2
  0,                                      !- Minute 2
  0.1,                                    !- Value Until Time 2
  8,                                      !- Hour 3
  0,                                      !- Minute 3
  0.3,                                    !- Value Until Time 3
  17,                                     !- Hour 4
  0,                                      !- Minute 4
  0.9,                                    !- Value Until Time 4
  18,                                     !- Hour 5
  0,                                      !- Minute 5
  0.7,                                    !- Value Until Time 5
  20,                                     !- Hour 6
  0,                                      !- Minute 6
  0.5,                                    !- Value Until Time 6
  22,                                     !- Hour 7
  0,                                      !- Minute 7
  0.3,                                    !- Value Until Time 7
  23,                                     !- Hour 8
  0,                                      !- Minute 8
  0.1,                                    !- Value Until Time 8
  24,                                     !- Hour 9
  0,                                      !- Minute 9
  0.05;                                   !- Value Until Time 9

OS:Schedule:Rule,
  {09da5dfd-8a7d-48c7-8a85-d0f015ac2086}, !- Handle
  Medium Office Lighting Schedule Saturday Rule, !- Name
  {6c9e53be-6f0b-4f1b-95ac-f9bf5f1661aa}, !- Schedule Ruleset Name
  0,                                      !- Rule Order
  {509b1f54-a7ce-42db-b76b-0124835210d2}, !- Day Schedule Name
  ,                                       !- Apply Sunday
  ,                                       !- Apply Monday
  ,                                       !- Apply Tuesday
  ,                                       !- Apply Wednesday
  ,                                       !- Apply Thursday
  ,                                       !- Apply Friday
  Yes;                                    !- Apply Saturday

OS:Schedule:Day,
  {509b1f54-a7ce-42db-b76b-0124835210d2}, !- Handle
  Medium Office Lighting Saturday Schedule, !- Name
  {af5c5dd4-bff9-4c91-bcc3-6a07e180428e}, !- Schedule Type Limits Name
  ,                                       !- Interpolate to Timestep
  6,                                      !- Hour 1
  0,                                      !- Minute 1
  0.05,                                   !- Value Until Time 1
  8,                                      !- Hour 2
  0,                                      !- Minute 2
  0.1,                                    !- Value Until Time 2
  14,                                     !- Hour 3
  0,                                      !- Minute 3
  0.5,                                    !- Value Until Time 3
  17,                                     !- Hour 4
  0,                                      !- Minute 4
  0.15,                                   !- Value Until Time 4
  24,                                     !- Hour 5
  0,                                      !- Minute 5
  0.05;                                   !- Value Until Time 5

OS:Schedule:Ruleset,
  {fcef2451-6804-4400-a5f7-1b1680854bf7}, !- Handle
  Medium Office Electric Equipment Schedule, !- Name
  {af5c5dd4-bff9-4c91-bcc3-6a07e180428e}, !- Schedule Type Limits Name
  {e09217dc-36d8-4c72-b906-1fb5e8bd6781}, !- Default Day Schedule Name
  {deef92ca-fdc3-4097-a3a6-1616ceec664e}, !- Summer Design Day Schedule Name
  {15668fbd-8052-460f-b170-8dc531a3835a}; !- Winter Design Day Schedule Name

OS:Schedule:Day,
  {e09217dc-36d8-4c72-b906-1fb5e8bd6781}, !- Handle
  Medium Office Electric Equipment All Other Days Schedule, !- Name
  {af5c5dd4-bff9-4c91-bcc3-6a07e180428e}, !- Schedule Type Limits Name
  ,                                       !- Interpolate to Timestep
  24,                                     !- Hour 1
  0,                                      !- Minute 1
  0.3;                                    !- Value Until Time 1

OS:Schedule:Day,
  {6c19a3a6-71c4-4ff1-9200-1a3b5fade62c}, !- Handle
  Medium Office Electric Equipment Summer Design Day Schedule, !- Name
  ,                                       !- Schedule Type Limits Name
  ,                                       !- Interpolate to Timestep
  6,                                      !- Hour 1
  0,                                      !- Minute 1
  1,                                      !- Value Until Time 1
  24,                                     !- Hour 2
  0,                                      !- Minute 2
  0;                                      !- Value Until Time 2

OS:Schedule:Day,
  {deef92ca-fdc3-4097-a3a6-1616ceec664e}, !- Handle
  Medium Office Electric Equipment Summer Design Day Schedule 1, !- Name
  {af5c5dd4-bff9-4c91-bcc3-6a07e180428e}, !- Schedule Type Limits Name
  ,                                       !- Interpolate to Timestep
  6,                                      !- Hour 1
  0,                                      !- Minute 1
  1,                                      !- Value Until Time 1
  24,                                     !- Hour 2
  0,                                      !- Minute 2
  0;                                      !- Value Until Time 2

OS:Schedule:Day,
  {793dd6f4-7020-4c4d-96a3-6c189c0dd968}, !- Handle
  Medium Office Electric Equipment Winter Design Day Schedule, !- Name
  ,                                       !- Schedule Type Limits Name
  ,                                       !- Interpolate to Timestep
  24,                                     !- Hour 1
  0,                                      !- Minute 1
  0;                                      !- Value Until Time 1

OS:Schedule:Day,
  {15668fbd-8052-460f-b170-8dc531a3835a}, !- Handle
  Medium Office Electric Equipment Winter Design Day Schedule 1, !- Name
  {af5c5dd4-bff9-4c91-bcc3-6a07e180428e}, !- Schedule Type Limits Name
  ,                                       !- Interpolate to Timestep
  24,                                     !- Hour 1
  0,                                      !- Minute 1
  0;                                      !- Value Until Time 1

OS:Schedule:Rule,
  {9c7f4c63-4acb-486b-8c5c-272705ccce13}, !- Handle
  Medium Office Electric Equipment Schedule Weekdays Rule, !- Name
  {fcef2451-6804-4400-a5f7-1b1680854bf7}, !- Schedule Ruleset Name
  1,                                      !- Rule Order
  {78b500a4-c16f-4e6d-8f03-bdf361fcec6b}, !- Day Schedule Name
  ,                                       !- Apply Sunday
  Yes,                                    !- Apply Monday
  Yes,                                    !- Apply Tuesday
  Yes,                                    !- Apply Wednesday
  Yes,                                    !- Apply Thursday
  Yes;                                    !- Apply Friday

OS:Schedule:Day,
  {78b500a4-c16f-4e6d-8f03-bdf361fcec6b}, !- Handle
  Medium Office Electric Equipment Weekdays Schedule, !- Name
  {af5c5dd4-bff9-4c91-bcc3-6a07e180428e}, !- Schedule Type Limits Name
  ,                                       !- Interpolate to Timestep
  8,                                      !- Hour 1
  0,                                      !- Minute 1
  0.4,                                    !- Value Until Time 1
  12,                                     !- Hour 2
  0,                                      !- Minute 2
  0.9,                                    !- Value Until Time 2
  13,                                     !- Hour 3
  0,                                      !- Minute 3
  0.8,                                    !- Value Until Time 3
  17,                                     !- Hour 4
  0,                                      !- Minute 4
  0.9,                                    !- Value Until Time 4
  18,                                     !- Hour 5
  0,                                      !- Minute 5
  0.8,                                    !- Value Until Time 5
  20,                                     !- Hour 6
  0,                                      !- Minute 6
  0.6,                                    !- Value Until Time 6
  22,                                     !- Hour 7
  0,                                      !- Minute 7
  0.5,                                    !- Value Until Time 7
  24,                                     !- Hour 8
  0,                                      !- Minute 8
  0.4;                                    !- Value Until Time 8

OS:Schedule:Rule,
  {8b3106e3-fa18-4515-8917-2870f1fbdb8c}, !- Handle
  Medium Office Electric Equipment Schedule Saturday Rule, !- Name
  {fcef2451-6804-4400-a5f7-1b1680854bf7}, !- Schedule Ruleset Name
  0,                                      !- Rule Order
  {75ced2f6-8d55-4a54-9da7-e1a65486bda5}, !- Day Schedule Name
  ,                                       !- Apply Sunday
  ,                                       !- Apply Monday
  ,                                       !- Apply Tuesday
  ,                                       !- Apply Wednesday
  ,                                       !- Apply Thursday