
OS:Version,
  {bae37257-0280-4955-a7ac-29ab7f603f65}, ! Handle
  0.9.0;                                  ! Version Identifier

OS:SimulationControl,
  {1eb27dec-1d29-45ff-ac60-62347688ef14}, ! Handle
  Yes,                                    ! Do Zone Sizing Calculation
  Yes,                                    ! Do System Sizing Calculation
  ,                                       ! Do Plant Sizing Calculation
  No,                                     ! Run Simulation for Sizing Periods
  Yes;                                    ! Run Simulation for Weather File Run Periods

OS:Timestep,
  {675be3bb-403f-475e-85e4-5f55c29009f8}, ! Handle
  6;                                      ! Number of Timesteps per Hour

OS:RunPeriod,
  {a76333c7-c6a7-4b4b-9096-b20abce1918d}, ! Handle
  Run Period 1,                           ! Name
  1,                                      ! Begin Month
  1,                                      ! Begin Day of Month
  12,                                     ! End Month
  31,                                     ! End Day of Month
  No,                                     ! Use Weather File Holidays and Special Days
  No,                                     ! Use Weather File Daylight Saving Period
  No,                                     ! Apply Weekend Holiday Rule
  Yes,                                    ! Use Weather File Rain Indicators
  Yes,                                    ! Use Weather File Snow Indicators
  1;                                      ! Number of Times Runperiod to be Repeated

OS:SurfaceConvectionAlgorithm:Inside,
  {f4834f48-0116-4cf7-bcf5-0f77215020f6}, ! Handle
  TARP;                                   ! Algorithm

OS:SurfaceConvectionAlgorithm:Outside,
  {089ce17c-900e-40d4-bc27-fc414459bc08}, ! Handle
  DOE-2;                                  ! Algorithm

OS:HeatBalanceAlgorithm,
  {be43b48f-acc1-470b-978a-4d33590bbfce}, ! Handle
  ConductionTransferFunction,             ! Algorithm
  200;                                    ! Surface Temperature Upper Limit {F}

OS:ZoneAirHeatBalanceAlgorithm,
  {3a3712af-266f-47e7-bf5d-9cc46ac2ecda}, ! Handle
  AnalyticalSolution;                     ! Algorithm

OS:ConvergenceLimits,
  {3f7c757c-e144-42f8-9bd0-3c69e1f962dc}; ! Handle

OS:ShadowCalculation,
  {d4b8caa7-a960-4632-81a3-99b6ff5f7624}, ! Handle
  7,                                      ! Calculation Frequency
  15000;                                  ! Maximum Figures in Shadow Overlap Calculations

OS:Site,
  {50868bf3-82c6-4ea8-84a3-71303be72266}, ! Handle
  Site 1,                                 ! Name
  41.77,                                  ! Latitude {deg}
  -87.75,                                 ! Longitude {deg}
  -6,                                     ! Time Zone {hr}
  190,                                    ! Elevation {m}
  ;                                       ! Terrain

OS:Site:GroundTemperature:BuildingSurface,
  {3b473865-d2e1-473b-a4cf-c1194f13d108}, ! Handle
  19.527,                                 ! January Ground Temperature {C}
  19.502,                                 ! February Ground Temperature {C}
  19.536,                                 ! March Ground Temperature {C}
  19.598,                                 ! April Ground Temperature {C}
  20.002,                                 ! May Ground Temperature {C}
  21.64,                                  ! June Ground Temperature {C}
  22.225,                                 ! July Ground Temperature {C}
  22.375,                                 ! August Ground Temperature {C}
  21.449,                                 ! September Ground Temperature {C}
  20.121,                                 ! October Ground Temperature {C}
  19.802,                                 ! November Ground Temperature {C}
  19.633;                                 ! December Ground Temperature {C}

OS:Site:WaterMainsTemperature,
  {da3a2adc-8771-4104-85df-d34c57773a15}, ! Handle
  Correlation,                            ! Calculation Method
  ,                                       ! Temperature Schedule Name
  9.69,                                   ! Annual Average Outdoor Air Temperature {C}
  28.1;                                   ! Maximum Difference In Monthly Average Outdoor Air Temperatures {deltaC}

OS:SizingPeriod:DesignDay,
  {7bc8cc8f-718b-4ee0-acd6-f1448a685969}, ! Handle
  Sizing Period Design Day 1,             ! Name
  -20.6,                                  ! Maximum Dry-Bulb Temperature {C}
  0,                                      ! Daily Dry-Bulb Temperature Range {deltaC}
  -20.6,                                  ! Humidity Indicating Conditions at Maximum Dry-Bulb {BasedOnField A3}
  99063,                                  ! Barometric Pressure {Pa}
  4.9,                                    ! Wind Speed {m/s}
  270,                                    ! Wind Direction {deg}
  0,                                      ! Sky Clearness
  0,                                      ! Rain Indicator
  0,                                      ! Snow Indicator
  21,                                     ! Day of Month
  1,                                      ! Month
  WinterDesignDay,                        ! Day Type
  0,                                      ! Daylight Saving Time Indicator
  WetBulb,                                ! Humidity Indicating Type
  ,                                       ! Humidity Indicating Day Schedule Name
  DefaultMultipliers,                     ! Dry-Bulb Temperature Range Modifier Type
  ,                                       ! Dry-Bulb Temperature Range Modifier Schedule Name
  AshraeClearSky;                         ! Solar Model Indicator

OS:SizingPeriod:DesignDay,
  {d4641f0b-fe09-4d71-bd62-b1e5c0dc9e90}, ! Handle
  Sizing Period Design Day 2,             ! Name
  33.2,                                   ! Maximum Dry-Bulb Temperature {C}
  10.7,                                   ! Daily Dry-Bulb Temperature Range {deltaC}
  23.8,                                   ! Humidity Indicating Conditions at Maximum Dry-Bulb {BasedOnField A3}
  99063,                                  ! Barometric Pressure {Pa}
  5.3,                                    ! Wind Speed {m/s}
  230,                                    ! Wind Direction {deg}
  1,                                      ! Sky Clearness
  0,                                      ! Rain Indicator
  0,                                      ! Snow Indicator
  21,                                     ! Day of Month
  7,                                      ! Month
  SummerDesignDay,                        ! Day Type
  0,                                      ! Daylight Saving Time Indicator
  WetBulb,                                ! Humidity Indicating Type
  ,                                       ! Humidity Indicating Day Schedule Name
  DefaultMultipliers,                     ! Dry-Bulb Temperature Range Modifier Type
  ,                                       ! Dry-Bulb Temperature Range Modifier Schedule Name
  AshraeClearSky;                         ! Solar Model Indicator

OS:ScheduleTypeLimits,
  {4428cdb4-19bc-400d-ab9b-3cc14505b139}, ! Handle
  Temperature,                            ! Name
  -60,                                    ! Lower Limit Value {BasedOnField A4}
  200,                                    ! Upper Limit Value {BasedOnField A4}
  CONTINUOUS,                             ! Numeric Type
  Temperature;                            ! Unit Type

OS:DefaultScheduleSet,
  {58b78f6a-0d19-464f-ac25-8c21cbe0e39b}, ! Handle
  Default Schedules,                      ! Name
  ,                                       ! Hours of Operation Schedule Name
  {6df68e30-ba8b-46ec-85cb-59a996ff7985}, ! Number of People Schedule Name
  {62a303a6-b3ba-4b29-9ba9-b2fbe52f67d5}, ! People Activity Level Schedule Name
  {4de30b6e-a925-4cac-94df-73a5861b3e18}, ! Lighting Schedule Name
  {677570e3-c585-44e6-87a0-5b4e25398e18}, ! Electric Equipment Schedule Name
  {9e17a12c-b1c1-4e92-97ff-5bace32b063b}, ! Gas Equipment Schedule Name
  {1481572e-a915-4891-8c0b-1d65f8e7d0c8}, ! Hot Water Equipment Schedule Name
  {e99a476b-95c9-4da1-981c-2b152fa05d6b}, ! Infiltration Schedule Name
  ,                                       ! Steam Equipment Schedule Name
  ;                                       ! Other Equipment Schedule Name

OS:Schedule:Ruleset,
  {6df68e30-ba8b-46ec-85cb-59a996ff7985}, ! Handle
  Medium Office Number of People Schedule, ! Name
  {dce1d497-773b-4daf-ac5e-cc4f1e7e2859}, ! Schedule Type Limits Name
  {0362ca6c-8c5c-4df3-b608-cf15a0240f90}, ! Default Day Schedule Name
  {5d03dada-54cb-44df-b9b6-b230ba1978ae}; ! Summer Design Day Schedule Name

OS:Schedule:Day,
  {0362ca6c-8c5c-4df3-b608-cf15a0240f90}, ! Handle
  Medium Office Number of People All Other Days Schedule, ! Name
  {dce1d497-773b-4daf-ac5e-cc4f1e7e2859}, ! Schedule Type Limits Name
  ,                                       ! Interpolate to Timestep
  24,                                     ! Hour 1
  0,                                      ! Minute 1
  0;                                      ! Value Until Time 1

OS:Schedule:Day,
  {37b3ffe9-1bb9-4837-b2ca-8345e2dd1c25}, ! Handle
  Medium Office Number of People Summer Design Day Schedule, ! Name
  ,                                       ! Schedule Type Limits Name
  ,                                       ! Interpolate to Timestep
  6,                                      ! Hour 1
  0,                                      ! Minute 1
  0,                                      ! Value Until Time 1
  22,                                     ! Hour 2
  0,                                      ! Minute 2
  1,                                      ! Value Until Time 2
  24,                                     ! Hour 3
  0,                                      ! Minute 3
  0.05;                                   ! Value Until Time 3

OS:Schedule:Day,
  {5d03dada-54cb-44df-b9b6-b230ba1978ae}, ! Handle
  Medium Office Number of People Summer Design Day Schedule 1, ! Name
  {dce1d497-773b-4daf-ac5e-cc4f1e7e2859}, ! Schedule Type Limits Name
  ,                                       ! Interpolate to Timestep
  6,                                      ! Hour 1
  0,                                      ! Minute 1
  0,                                      ! Value Until Time 1
  22,                                     ! Hour 2
  0,                                      ! Minute 2
  1,                                      ! Value Until Time 2
  24,                                     ! Hour 3
  0,                                      ! Minute 3
  0.05;                                   ! Value Until Time 3

OS:Schedule:Rule,
  {9278411b-d0e0-4134-b4fe-a2de5ba40ee4}, ! Handle
  Medium Office Number of People Schedule Weekdays Rule, ! Name
  {6df68e30-ba8b-46ec-85cb-59a996ff7985}, ! Schedule Ruleset Name
  1,                                      ! Rule Order
  {730c2b0f-9434-49a0-a699-6d0410419ab1}, ! Day Schedule Name
  ,                                       ! Apply Sunday
  Yes,                                    ! Apply Monday
  Yes,                                    ! Apply Tuesday
  Yes,                                    ! Apply Wednesday
  Yes,                                    ! Apply Thursday
  Yes;                                    ! Apply Friday

OS:Schedule:Day,
  {730c2b0f-9434-49a0-a699-6d0410419ab1}, ! Handle
  Medium Office Number of People Weekdays Schedule, ! Name
  {dce1d497-773b-4daf-ac5e-cc4f1e7e2859}, ! Schedule Type Limits Name
  ,                                       ! Interpolate to Timestep
  6,                                      ! Hour 1
  0,                                      ! Minute 1
  0,                                      ! Value Until Time 1
  7,                                      ! Hour 2
  0,                                      ! Minute 2
  0.1,                                    ! Value Until Time 2
  8,                                      ! Hour 3
  0,                                      ! Minute 3
  0.2,                                    ! Value Until Time 3
  12,                                     ! Hour 4
  0,                                      ! Minute 4
  0.95,                                   ! Value Until Time 4
  13,                                     ! Hour 5
  0,                                      ! Minute 5
  0.5,                                    ! Value Until Time 5
  17,                                     ! Hour 6
  0,                                      ! Minute 6
  0.95,                                   ! Value Until Time 6
  18,                                     ! Hour 7
  0,                                      ! Minute 7
  0.7,                                    ! Value Until Time 7
  20,                                     ! Hour 8
  0,                                      ! Minute 8
  0.4,                                    ! Value Until Time 8
  22,                                     ! Hour 9
  0,                                      ! Minute 9
  0.1,                                    ! Value Until Time 9
  24,                                     ! Hour 10
  0,                                      ! Minute 10
  0.05;                                   ! Value Until Time 10

OS:Schedule:Rule,
  {383f5678-a8ee-486d-a1b0-649dc221412b}, ! Handle
  Medium Office Number of People Schedule Saturday Rule, ! Name
  {6df68e30-ba8b-46ec-85cb-59a996ff7985}, ! Schedule Ruleset Name
  0,                                      ! Rule Order
  {dd5e01c1-1d4c-4c4f-9a2b-942509ad3d29}, ! Day Schedule Name
  ,                                       ! Apply Sunday
  ,                                       ! Apply Monday
  ,                                       ! Apply Tuesday
  ,                                       ! Apply Wednesday
  ,                                       ! Apply Thursday
  ,                                       ! Apply Friday
  Yes;                                    ! Apply Saturday

OS:Schedule:Day,
  {dd5e01c1-1d4c-4c4f-9a2b-942509ad3d29}, ! Handle
  Medium Office Number of People Saturday Schedule, ! Name
  {dce1d497-773b-4daf-ac5e-cc4f1e7e2859}, ! Schedule Type Limits Name
  ,                                       ! Interpolate to Timestep
  6,                                      ! Hour 1
  0,                                      ! Minute 1
  0,                                      ! Value Until Time 1
  8,                                      ! Hour 2
  0,                                      ! Minute 2
  0.1,                                    ! Value Until Time 2
  14,                                     ! Hour 3
  0,                                      ! Minute 3
  0.5,                                    ! Value Until Time 3
  17,                                     ! Hour 4
  0,                                      ! Minute 4
  0.1,                                    ! Value Until Time 4
  24,                                     ! Hour 5
  0,                                      ! Minute 5
  0;                                      ! Value Until Time 5

OS:ScheduleTypeLimits,
  {dce1d497-773b-4daf-ac5e-cc4f1e7e2859}, ! Handle
  Fractional,                             ! Name
  0,                                      ! Lower Limit Value {BasedOnField A4}
  1,                                      ! Upper Limit Value {BasedOnField A4}
  Continuous;                             ! Numeric Type

OS:Schedule:Ruleset,
  {62a303a6-b3ba-4b29-9ba9-b2fbe52f67d5}, ! Handle
  Medium Office People Activity Level Schedule, ! Name
  {194f4609-d04f-45e3-b74e-0eb5a26a6112}, ! Schedule Type Limits Name
  {8f43dca4-74b7-42dd-8608-0c9785fd4b66}; ! Default Day Schedule Name

OS:Schedule:Day,
  {8f43dca4-74b7-42dd-8608-0c9785fd4b66}, ! Handle
  Medium Office People Activity Level All Days Schedule, ! Name
  {194f4609-d04f-45e3-b74e-0eb5a26a6112}, ! Schedule Type Limits Name
  ,                                       ! Interpolate to Timestep
  24,                                     ! Hour 1
  0,                                      ! Minute 1
  120;                                    ! Value Until Time 1

OS:ScheduleTypeLimits,
  {194f4609-d04f-45e3-b74e-0eb5a26a6112}, ! Handle
  ActivityLevel,                          ! Name
  0,                                      ! Lower Limit Value {BasedOnField A4}
  ,                                       ! Upper Limit Value {BasedOnField A4}
  Continuous,                             ! Numeric Type
  ActivityLevel;                          ! Unit Type

OS:Schedule:Ruleset,
  {4de30b6e-a925-4cac-94df-73a5861b3e18}, ! Handle
  Medium Office Lighting Schedule,        ! Name
  {dce1d497-773b-4daf-ac5e-cc4f1e7e2859}, ! Schedule Type Limits Name
  {852e0d75-1556-4bc1-b56e-032277b0106e}, ! Default Day Schedule Name
  {cf567d28-ad3c-4448-8a77-cfd1d14d5006}, ! Summer Design Day Schedule Name
  {0dc46e4a-1bd5-465d-a707-65fc444fb1d4}; ! Winter Design Day Schedule Name

OS:Schedule:Day,
  {852e0d75-1556-4bc1-b56e-032277b0106e}, ! Handle
  Medium Office Lighting All Other Days Schedule, ! Name
  {dce1d497-773b-4daf-ac5e-cc4f1e7e2859}, ! Schedule Type Limits Name
  ,                                       ! Interpolate to Timestep
  24,                                     ! Hour 1
  0,                                      ! Minute 1
  0.05;                                   ! Value Until Time 1

OS:Schedule:Day,
  {6abe8ca4-789f-4c1d-bc80-cdf0ed027877}, ! Handle
  Medium Office Lighting Summer Design Day Schedule, ! Name
  ,                                       ! Schedule Type Limits Name
  ,                                       ! Interpolate to Timestep
  6,                                      ! Hour 1
  0,                                      ! Minute 1
  1,                                      ! Value Until Time 1
  24,                                     ! Hour 2
  0,                                      ! Minute 2
  0;                                      ! Value Until Time 2

OS:Schedule:Day,
  {cf567d28-ad3c-4448-8a77-cfd1d14d5006}, ! Handle
  Medium Office Lighting Summer Design Day Schedule 1, ! Name
  {dce1d497-773b-4daf-ac5e-cc4f1e7e2859}, ! Schedule Type Limits Name
  ,                                       ! Interpolate to Timestep
  6,                                      ! Hour 1
  0,                                      ! Minute 1
  1,                                      ! Value Until Time 1
  24,                                     ! Hour 2
  0,                                      ! Minute 2
  0;                                      ! Value Until Time 2

OS:Schedule:Day,
  {2d4e3e2d-0ba3-4212-a37a-c51df7504163}, ! Handle
  Medium Office Lighting Winter Design Day Schedule, ! Name
  ,                                       ! Schedule Type Limits Name
  ,                                       ! Interpolate to Timestep
  24,                                     ! Hour 1
  0,                                      ! Minute 1
  0;                                      ! Value Until Time 1

OS:Schedule:Day,
  {0dc46e4a-1bd5-465d-a707-65fc444fb1d4}, ! Handle
  Medium Office Lighting Winter Design Day Schedule 1, ! Name
  {dce1d497-773b-4daf-ac5e-cc4f1e7e2859}, ! Schedule Type Limits Name
  ,                                       ! Interpolate to Timestep
  24,                                     ! Hour 1
  0,                                      ! Minute 1
  0;                                      ! Value Until Time 1

OS:Schedule:Rule,
  {be19bf0f-3c22-40ce-b9da-da6776bb7536}, ! Handle
  Medium Office Lighting Schedule Weekdays Rule, ! Name
  {4de30b6e-a925-4cac-94df-73a5861b3e18}, ! Schedule Ruleset Name
  1,                                      ! Rule Order
  {7d9c7807-cb78-468f-8ead-6ed55eca488c}, ! Day Schedule Name
  ,                                       ! Apply Sunday
  Yes,                                    ! Apply Monday
  Yes,                                    ! Apply Tuesday
  Yes,                                    ! Apply Wednesday
  Yes,                                    ! Apply Thursday
  Yes;                                    ! Apply Friday

OS:Schedule:Day,
  {7d9c7807-cb78-468f-8ead-6ed55eca488c}, ! Handle
  Medium Office Lighting Weekdays Schedule, ! Name
  {dce1d497-773b-4daf-ac5e-cc4f1e7e2859}, ! Schedule Type Limits Name
  ,                                       ! Interpolate to Timestep
  5,                                      ! Hour 1
  0,                                      ! Minute 1
  0.05,                                   ! Value Until Time 1
  7,                                      ! Hour 2
  0,                                      ! Minute 2
  0.1,                                    ! Value Until Time 2
  8,                                      ! Hour 3
  0,                                      ! Minute 3
  0.3,                                    ! Value Until Time 3
  17,                                     ! Hour 4
  0,                                      ! Minute 4
  0.9,                                    ! Value Until Time 4
  18,                                     ! Hour 5
  0,                                      ! Minute 5
  0.7,                                    ! Value Until Time 5
  20,                                     ! Hour 6
  0,                                      ! Minute 6
  0.5,                                    ! Value Until Time 6
  22,                                     ! Hour 7
  0,                                      ! Minute 7
  0.3,                                    ! Value Until Time 7
  23,                                     ! Hour 8
  0,                                      ! Minute 8
  0.1,                                    ! Value Until Time 8
  24,                                     ! Hour 9
  0,                                      ! Minute 9
  0.05;                                   ! Value Until Time 9

OS:Schedule:Rule,
  {83c81e76-ecd5-4a75-b6bb-8c5c5a00b44e}, ! Handle
  Medium Office Lighting Schedule Saturday Rule, ! Name
  {4de30b6e-a925-4cac-94df-73a5861b3e18}, ! Schedule Ruleset Name
  0,                                      ! Rule Order
  {ab494c6b-d2b0-4c6e-9680-7e495f874aa4}, ! Day Schedule Name
  ,                                       ! Apply Sunday
  ,                                       ! Apply Monday
  ,                                       ! Apply Tuesday
  ,                                       ! Apply Wednesday
  ,                                       ! Apply Thursday
  ,                                       ! Apply Friday
  Yes;                                    ! Apply Saturday

OS:Schedule:Day,
  {ab494c6b-d2b0-4c6e-9680-7e495f874aa4}, ! Handle
  Medium Office Lighting Saturday Schedule, ! Name
  {dce1d497-773b-4daf-ac5e-cc4f1e7e2859}, ! Schedule Type Limits Name
  ,                                       ! Interpolate to Timestep
  6,                                      ! Hour 1
  0,                                      ! Minute 1
  0.05,                                   ! Value Until Time 1
  8,                                      ! Hour 2
  0,                                      ! Minute 2
  0.1,                                    ! Value Until Time 2
  14,                                     ! Hour 3
  0,                                      ! Minute 3
  0.5,                                    ! Value Until Time 3
  17,                                     ! Hour 4
  0,                                      ! Minute 4
  0.15,                                   ! Value Until Time 4
  24,                                     ! Hour 5
  0,                                      ! Minute 5
  0.05;                                   ! Value Until Time 5

OS:Schedule:Ruleset,
  {677570e3-c585-44e6-87a0-5b4e25398e18}, ! Handle
  Medium Office Electric Equipment Schedule, ! Name
  {dce1d497-773b-4daf-ac5e-cc4f1e7e2859}, ! Schedule Type Limits Name
  {236a7cdc-c2c2-42cc-b25e-dfde23b20ae9}, ! Default Day Schedule Name
  {57238fc2-cb95-4328-add3-8a7dc97330ac}, ! Summer Design Day Schedule Name
  {c3f76b0d-877a-4c23-8f4a-32c9a4b4749a}; ! Winter Design Day Schedule Name

OS:Schedule:Day,
  {236a7cdc-c2c2-42cc-b25e-dfde23b20ae9}, ! Handle
  Medium Office Electric Equipment All Other Days Schedule, ! Name
  {dce1d497-773b-4daf-ac5e-cc4f1e7e2859}, ! Schedule Type Limits Name
  ,                                       ! Interpolate to Timestep
  24,                                     ! Hour 1
  0,                                      ! Minute 1
  0.3;                                    ! Value Until Time 1

OS:Schedule:Day,
  {194fbe15-e981-4b18-95c1-8fc11e706221}, ! Handle
  Medium Office Electric Equipment Summer Design Day Schedule, ! Name
  ,                                       ! Schedule Type Limits Name
  ,                                       ! Interpolate to Timestep
  6,                                      ! Hour 1
  0,                                      ! Minute 1
  1,                                      ! Value Until Time 1
  24,                                     ! Hour 2
  0,                                      ! Minute 2
  0;                                      ! Value Until Time 2

OS:Schedule:Day,
  {57238fc2-cb95-4328-add3-8a7dc97330ac}, ! Handle
  Medium Office Electric Equipment Summer Design Day Schedule 1, ! Name
  {dce1d497-773b-4daf-ac5e-cc4f1e7e2859}, ! Schedule Type Limits Name
  ,                                       ! Interpolate to Timestep
  6,                                      ! Hour 1
  0,                                      ! Minute 1
  1,                                      ! Value Until Time 1
  24,                                     ! Hour 2
  0,                                      ! Minute 2
  0;                                      ! Value Until Time 2

OS:Schedule:Day,
  {5e14aaa8-2e8f-43ed-9b8c-4a34fe3bba1a}, ! Handle
  Medium Office Electric Equipment Winter Design Day Schedule, ! Name
  ,                                       ! Schedule Type Limits Name
  ,                                       ! Interpolate to Timestep
  24,                                     ! Hour 1
  0,                                      ! Minute 1
  0;                                      ! Value Until Time 1

OS:Schedule:Day,
  {c3f76b0d-877a-4c23-8f4a-32c9a4b4749a}, ! Handle
  Medium Office Electric Equipment Winter Design Day Schedule 1, ! Name
  {dce1d497-773b-4daf-ac5e-cc4f1e7e2859}, ! Schedule Type Limits Name
  ,                                       ! Interpolate to Timestep
  24,                                     ! Hour 1
  0,                                      ! Minute 1
  0;                                      ! Value Until Time 1

OS:Schedule:Rule,
  {f0d6ac8d-fd2d-431e-bd98-93b8106bd7d6}, ! Handle
  Medium Office Electric Equipment Schedule Weekdays Rule, ! Name
  {677570e3-c585-44e6-87a0-5b4e25398e18}, ! Schedule Ruleset Name
  1,                                      ! Rule Order
  {40d0bcc3-316a-41b5-b6db-c996a75d2f27}, ! Day Schedule Name
  ,                                       ! Apply Sunday
  Yes,                                    ! Apply Monday
  Yes,                                    ! Apply Tuesday
  Yes,                                    ! Apply Wednesday
  Yes,                                    ! Apply Thursday
  Yes;                                    ! Apply Friday

OS:Schedule:Day,
  {40d0bcc3-316a-41b5-b6db-c996a75d2f27}, ! Handle
  Medium Office Electric Equipment Weekdays Schedule, ! Name
  {dce1d497-773b-4daf-ac5e-cc4f1e7e2859}, ! Schedule Type Limits Name
  ,                                       ! Interpolate to Timestep
  8,                                      ! Hour 1
  0,                                      ! Minute 1
  0.4,                                    ! Value Until Time 1
  12,                                     ! Hour 2
  0,                                      ! Minute 2
  0.9,                                    ! Value Until Time 2
  13,                                     ! Hour 3
  0,                                      ! Minute 3
  0.8,                                    ! Value Until Time 3
  17,                                     ! Hour 4
  0,                                      ! Minute 4
  0.9,                                    ! Value Until Time 4
  18,                                     ! Hour 5
  0,                                      ! Minute 5
  0.8,                                    ! Value Until Time 5
  20,                                     ! Hour 6
  0,                                      ! Minute 6
  0.6,                                    ! Value Until Time 6
  22,                                     ! Hour 7
  0,                                      ! Minute 7
  0.5,                                    ! Value Until Time 7
  24,                                     ! Hour 8
  0,                                      ! Minute 8
  0.4;                                    ! Value Until Time 8

OS:Schedule:Rule,
  {5d7139e3-7415-4199-aff7-b65dd56609f9}, ! Handle
  Medium Office Electric Equipment Schedule Saturday Rule, ! Name
  {677570e3-c585-44e6-87a0-5b4e25398e18}, ! Schedule Ruleset Name
  0,                                      ! Rule Order
  {77c3f4d6-81bb-4523-9c34-83c9a8efcffd}, ! Day Schedule Name
  ,                                       ! Apply Sunday
  ,                                       ! Apply Monday
  ,                                       ! Apply Tuesday
  ,                                       ! Apply Wednesday
  ,                                       ! Apply Thursday
  ,                                       ! Apply Friday
  Yes;                                    ! Apply Saturday

OS:Schedule:Day,
  {77c3f4d6-81bb-4523-9c34-83c9a8efcffd}, ! Handle
  Medium Office Electric Equipment Saturday Schedule, ! Name
  {dce1d497-773b-4daf-ac5e-cc4f1e7e2859}, ! Schedule Type Limits Name
  ,                                       ! Interpolate to Timestep