
OS:Version,
  {2c44c603-4a20-41e8-aa31-b360a7206cf8}, !- Handle
  1.7.1;                                  !- Version Identifier

OS:SimulationControl,
  {08eccb00-ba4f-44a5-8c93-46a3921e8e06}, !- Handle
  Yes,                                    !- Do Zone Sizing Calculation
  Yes,                                    !- Do System Sizing Calculation
  ,                                       !- Do Plant Sizing Calculation
  No,                                     !- Run Simulation for Sizing Periods
  Yes;                                    !- Run Simulation for Weather File Run Periods

OS:Timestep,
  {d2093002-854c-4524-97e6-047db00a9450}, !- Handle
  6;                                      !- Number of Timesteps per Hour

OS:RunPeriod,
  {53ce4d2a-9a62-4e5c-a30d-df626a9d63c3}, !- Handle
  Run Period 1,                           !- Name
  1,                                      !- Begin Month
  1,                                      !- Begin Day of Month
  12,                                     !- End Month
  31,                                     !- End Day of Month
  No,                                     !- Use Weather File Holidays and Special Days
  No,                                     !- Use Weather File Daylight Saving Period
  No,                                     !- Apply Weekend Holiday Rule
  Yes,                                    !- Use Weather File Rain Indicators
  Yes,                                    !- Use Weather File Snow Indicators
  1;                                      !- Number of Times Runperiod to be Repeated

OS:SurfaceConvectionAlgorithm:Inside,
  {01704b5e-db51-4535-9a71-b297dd82752c}, !- Handle
  TARP;                                   !- Algorithm

OS:SurfaceConvectionAlgorithm:Outside,
  {54b271e9-ba41-46f6-b716-ebebd2714fbe}, !- Handle
  DOE-2;                                  !- Algorithm

OS:HeatBalanceAlgorithm,
  {1a94aed5-d0d8-4804-bdc4-951a33e26e61}, !- Handle
  ConductionTransferFunction,             !- Algorithm
  200;                                    !- Surface Temperature Upper Limit {F}

OS:ZoneAirHeatBalanceAlgorithm,
  {fa60d478-e3cc-4ff1-b0bd-ce55cc5b1b22}, !- Handle
  AnalyticalSolution;                     !- Algorithm

OS:ConvergenceLimits,
  {f5c38543-ea84-45df-a16f-4dfb986d0a71}; !- Handle

OS:ShadowCalculation,
  {a9cbaa64-57ed-4cea-90c7-39a49daa9931}, !- Handle
  7,                                      !- Calculation Frequency
  15000;                                  !- Maximum Figures in Shadow Overlap Calculations

OS:Site,
  {65eaabcd-d808-42da-bea3-7c74e816e58c}, !- Handle
  Site 1,                                 !- Name
  41.77,                                  !- Latitude {deg}
  -87.75,                                 !- Longitude {deg}
  -6,                                     !- Time Zone {hr}
  190,                                    !- Elevation {m}
  ;                                       !- Terrain

OS:Site:GroundTemperature:BuildingSurface,
  {31cc5a52-a05b-41f6-97d2-f113e31129b5}, !- Handle
  19.527,                                 !- January Ground Temperature {C}
  19.502,                                 !- February Ground Temperature {C}
  19.536,                                 !- March Ground Temperature {C}
  19.598,                                 !- April Ground Temperature {C}
  20.002,                                 !- May Ground Temperature {C}
  21.64,                                  !- June Ground Temperature {C}
  22.225,                                 !- July Ground Temperature {C}
  22.375,                                 !- August Ground Temperature {C}
  21.449,                                 !- September Ground Temperature {C}
  20.121,                                 !- October Ground Temperature {C}
  19.802,                                 !- November Ground Temperature {C}
  19.633;                                 !- December Ground Temperature {C}

OS:Site:WaterMainsTemperature,
  {29246b10-b6da-4440-8cea-4f290dc0ff6f}, !- Handle
  Correlation,                            !- Calculation Method
  ,                                       !- Temperature Schedule Name
  9.69,                                   !- Annual Average Outdoor Air Temperature {C}
  28.1;                                   !- Maximum Difference In Monthly Average Outdoor Air Temperatures {deltaC}

OS:SizingPeriod:DesignDay,
  {65069cba-d0a2-41fa-b57a-3d9221373e32}, !- Handle
  Sizing Period Design Day 1,             !- Name
  -20.6,                                  !- Maximum Dry-Bulb Temperature {C}
  0,                                      !- Daily Dry-Bulb Temperature Range {deltaC}
  -20.6,                                  !- Humidity Indicating Conditions at Maximum Dry-Bulb {BasedOnField A3}
  99063,                                  !- Barometric Pressure {Pa}
  4.9,                                    !- Wind Speed {m/s}
  270,                                    !- Wind Direction {deg}
  0,                                      !- Sky Clearness
  0,                                      !- Rain Indicator
  0,                                      !- Snow Indicator
  21,                                     !- Day of Month
  1,                                      !- Month
  WinterDesignDay,                        !- Day Type
  0,                                      !- Daylight Saving Time Indicator
  WetBulb,                                !- Humidity Indicating Type
  ,                                       !- Humidity Indicating Day Schedule Name
  DefaultMultipliers,                     !- Dry-Bulb Temperature Range Modifier Type
  ,                                       !- Dry-Bulb Temperature Range Modifier Schedule Name
  AshraeClearSky;                         !- Solar Model Indicator

OS:SizingPeriod:DesignDay,
  {c8a06244-9009-4626-8586-012768f6182b}, !- Handle
  Sizing Period Design Day 2,             !- Name
  33.2,                                   !- Maximum Dry-Bulb Temperature {C}
  10.7,                                   !- Daily Dry-Bulb Temperature Range {deltaC}
  23.8,                                   !- Humidity Indicating Conditions at Maximum Dry-Bulb {BasedOnField A3}
  99063,                                  !- Barometric Pressure {Pa}
  5.3,                                    !- Wind Speed {m/s}
  230,                                    !- Wind Direction {deg}
  1,                                      !- Sky Clearness
  0,                                      !- Rain Indicator
  0,                                      !- Snow Indicator
  21,                                     !- Day of Month
  7,                                      !- Month
  SummerDesignDay,                        !- Day Type
  0,                                      !- Daylight Saving Time Indicator
  WetBulb,                                !- Humidity Indicating Type
  ,                                       !- Humidity Indicating Day Schedule Name
  DefaultMultipliers,                     !- Dry-Bulb Temperature Range Modifier Type
  ,                                       !- Dry-Bulb Temperature Range Modifier Schedule Name
  AshraeClearSky;                         !- Solar Model Indicator

OS:ScheduleTypeLimits,
  {e30e9651-83b6-47b3-9061-4ae2cc03b66c}, !- Handle
  Temperature,                            !- Name
  -60,                                    !- Lower Limit Value {BasedOnField A4}
  200,                                    !- Upper Limit Value {BasedOnField A4}
  CONTINUOUS,                             !- Numeric Type
  Temperature;                            !- Unit Type

OS:DefaultScheduleSet,
  {af8f4d0a-f04f-49aa-9afe-0a4e0779d053}, !- Handle
  Default Schedules,                      !- Name
  ,                                       !- Hours of Operation Schedule Name
  {b7635577-7662-4e22-90b1-79734d821b25}, !- Number of People Schedule Name
  {a294c3d8-0d28-4ec9-9499-679f7ea8940c}, !- People Activity Level Schedule Name
  {d00c9084-8dc9-4e00-850f-247e2f387915}, !- Lighting Schedule Name
  {12c95987-3743-4b59-8a5c-dff89194588c}, !- Electric Equipment Schedule Name
  {a99622e5-91f3-4fb0-9616-1bb3d2f663d2}, !- Gas Equipment Schedule Name
  {a6d764fc-ce11-49b0-9a9f-f10e572ffab2}, !- Hot Water Equipment Schedule Name
  {2811f73c-8913-4f13-82c8-3d5a5c7f4d01}, !- Infiltration Schedule Name
  ,                                       !- Steam Equipment Schedule Name
  ;                                       !- Other Equipment Schedule Name

OS:Schedule:Ruleset,
  {b7635577-7662-4e22-90b1-79734d821b25}, !- Handle
  Medium Office Number of People Schedule, !- Name
  {54409e23-f635-4ed7-87ff-53fae0249eef}, !- Schedule Type Limits Name
  {b7e56d1b-fd67-4a4f-901f-9d5ba28393b7}, !- Default Day Schedule Name
  {c701ed2c-8ba6-46ff-acfa-363420f1b725}; !- Summer Design Day Schedule Name

OS:Schedule:Day,
  {b7e56d1b-fd67-4a4f-901f-9d5ba28393b7}, !- Handle
  Medium Office Number of People All Other Days Schedule, !- Name
  {54409e23-f635-4ed7-87ff-53fae0249eef}, !- Schedule Type Limits Name
  ,                                       !- Interpolate to Timestep
  24,                                     !- Hour 1
  0,                                      !- Minute 1
  0;                                      !- Value Until Time 1

OS:Schedule:Day,
  {f2f15928-3545-4cda-8409-9a620899d9dd}, !- Handle
  Medium Office Number of People Summer Design Day Schedule, !- Name
  ,                                       !- Schedule Type Limits Name
  ,                                       !- Interpolate to Timestep
  6,                                      !- Hour 1
  0,                                      !- Minute 1
  0,                                      !- Value Until Time 1
  22,                                     !- Hour 2
  0,                                      !- Minute 2
  1,                                      !- Value Until Time 2
  24,                                     !- Hour 3
  0,                                      !- Minute 3
  0.05;                                   !- Value Until Time 3

OS:Schedule:Day,
  {c701ed2c-8ba6-46ff-acfa-363420f1b725}, !- Handle
  Medium Office Number of People Summer Design Day Schedule 1, !- Name
  {54409e23-f635-4ed7-87ff-53fae0249eef}, !- Schedule Type Limits Name
  ,                                       !- Interpolate to Timestep
  6,                                      !- Hour 1
  0,                                      !- Minute 1
  0,                                      !- Value Until Time 1
  22,                                     !- Hour 2
  0,                                      !- Minute 2
  1,                                      !- Value Until Time 2
  24,                                     !- Hour 3
  0,                                      !- Minute 3
  0.05;                                   !- Value Until Time 3

OS:Schedule:Rule,
  {2ae4a364-6937-4fd9-9488-4620fba5f1ff}, !- Handle
  Medium Office Number of People Schedule Weekdays Rule, !- Name
  {b7635577-7662-4e22-90b1-79734d821b25}, !- Schedule Ruleset Name
  1,                                      !- Rule Order
  {ed34b19f-d2fa-4c61-bb8b-d15f3c740b55}, !- Day Schedule Name
  ,                                       !- Apply Sunday
  Yes,                                    !- Apply Monday
  Yes,                                    !- Apply Tuesday
  Yes,                                    !- Apply Wednesday
  Yes,                                    !- Apply Thursday
  Yes;                                    !- Apply Friday

OS:Schedule:Day,
  {ed34b19f-d2fa-4c61-bb8b-d15f3c740b55}, !- Handle
  Medium Office Number of People Weekdays Schedule, !- Name
  {54409e23-f635-4ed7-87ff-53fae0249eef}, !- Schedule Type Limits Name
  ,                                       !- Interpolate to Timestep
  6,                                      !- Hour 1
  0,                                      !- Minute 1
  0,                                      !- Value Until Time 1
  7,                                      !- Hour 2
  0,                                      !- Minute 2
  0.1,                                    !- Value Until Time 2
  8,                                      !- Hour 3
  0,                                      !- Minute 3
  0.2,                                    !- Value Until Time 3
  12,                                     !- Hour 4
  0,                                      !- Minute 4
  0.95,                                   !- Value Until Time 4
  13,                                     !- Hour 5
  0,                                      !- Minute 5
  0.5,                                    !- Value Until Time 5
  17,                                     !- Hour 6
  0,                                      !- Minute 6
  0.95,                                   !- Value Until Time 6
  18,                                     !- Hour 7
  0,                                      !- Minute 7
  0.7,                                    !- Value Until Time 7
  20,                                     !- Hour 8
  0,                                      !- Minute 8
  0.4,                                    !- Value Until Time 8
  22,                                     !- Hour 9
  0,                                      !- Minute 9
  0.1,                                    !- Value Until Time 9
  24,                                     !- Hour 10
  0,                                      !- Minute 10
  0.05;                                   !- Value Until Time 10

OS:Schedule:Rule,
  {0e0226e7-41d9-4f79-8137-f174a3cea876}, !- Handle
  Medium Office Number of People Schedule Saturday Rule, !- Name
  {b7635577-7662-4e22-90b1-79734d821b25}, !- Schedule Ruleset Name
  0,                                      !- Rule Order
  {08879d39-f65c-4e05-9106-64369509e6e9}, !- Day Schedule Name
  ,                                       !- Apply Sunday
  ,                                       !- Apply Monday
  ,                                       !- Apply Tuesday
  ,                                       !- Apply Wednesday
  ,                                       !- Apply Thursday
  ,                                       !- Apply Friday
  Yes;                                    !- Apply Saturday

OS:Schedule:Day,
  {08879d39-f65c-4e05-9106-64369509e6e9}, !- Handle
  Medium Office Number of People Saturday Schedule, !- Name
  {54409e23-f635-4ed7-87ff-53fae0249eef}, !- Schedule Type Limits Name
  ,                                       !- Interpolate to Timestep
  6,                                      !- Hour 1
  0,                                      !- Minute 1
  0,                                      !- Value Until Time 1
  8,                                      !- Hour 2
  0,                                      !- Minute 2
  0.1,                                    !- Value Until Time 2
  14,                                     !- Hour 3
  0,                                      !- Minute 3
  0.5,                                    !- Value Until Time 3
  17,                                     !- Hour 4
  0,                                      !- Minute 4
  0.1,                                    !- Value Until Time 4
  24,                                     !- Hour 5
  0,                                      !- Minute 5
  0;                                      !- Value Until Time 5

OS:ScheduleTypeLimits,
  {54409e23-f635-4ed7-87ff-53fae0249eef}, !- Handle
  Fractional,                             !- Name
  0,                                      !- Lower Limit Value {BasedOnField A4}
  1,                                      !- Upper Limit Value {BasedOnField A4}
  Continuous;                             !- Numeric Type

OS:Schedule:Ruleset,
  {a294c3d8-0d28-4ec9-9499-679f7ea8940c}, !- Handle
  Medium Office People Activity Level Schedule, !- Name
  {05c8ffea-d10b-4053-a7a3-6bf346808d33}, !- Schedule Type Limits Name
  {5de4dd5c-a9b1-4e97-80fe-512bbba98ff9}; !- Default Day Schedule Name

OS:Schedule:Day,
  {5de4dd5c-a9b1-4e97-80fe-512bbba98ff9}, !- Handle
  Medium Office People Activity Level All Days Schedule, !- Name
  {05c8ffea-d10b-4053-a7a3-6bf346808d33}, !- Schedule Type Limits Name
  ,                                       !- Interpolate to Timestep
  24,                                     !- Hour 1
  0,                                      !- Minute 1
  120;                                    !- Value Until Time 1

OS:ScheduleTypeLimits,
  {05c8ffea-d10b-4053-a7a3-6bf346808d33}, !- Handle
  ActivityLevel,                          !- Name
  0,                                      !- Lower Limit Value {BasedOnField A4}
  ,                                       !- Upper Limit Value {BasedOnField A4}
  Continuous,                             !- Numeric Type
  ActivityLevel;                          !- Unit Type

OS:Schedule:Ruleset,
  {d00c9084-8dc9-4e00-850f-247e2f387915}, !- Handle
  Medium Office Lighting Schedule,        !- Name
  {54409e23-f635-4ed7-87ff-53fae0249eef}, !- Schedule Type Limits Name
  {12cbd208-e4aa-4c0c-9abd-f27d8cb4fb46}, !- Default Day Schedule Name
  {ea16ae3e-ee75-44da-ae00-59bfcd7e9a4d}, !- Summer Design Day Schedule Name
  {d86f70b0-cb59-44db-9a11-8f448897d5d2}; !- Winter Design Day Schedule Name

OS:Schedule:Day,
  {12cbd208-e4aa-4c0c-9abd-f27d8cb4fb46}, !- Handle
  Medium Office Lighting All Other Days Schedule, !- Name
  {54409e23-f635-4ed7-87ff-53fae0249eef}, !- Schedule Type Limits Name
  ,                                       !- Interpolate to Timestep
  24,                                     !- Hour 1
  0,                                      !- Minute 1
  0.05;                                   !- Value Until Time 1

OS:Schedule:Day,
  {d17617f2-29e3-473e-8f55-5eedf1decb19}, !- Handle
  Medium Office Lighting Summer Design Day Schedule, !- Name
  ,                                       !- Schedule Type Limits Name
  ,                                       !- Interpolate to Timestep
  6,                                      !- Hour 1
  0,                                      !- Minute 1
  1,                                      !- Value Until Time 1
  24,                                     !- Hour 2
  0,                                      !- Minute 2
  0;                                      !- Value Until Time 2

OS:Schedule:Day,
  {ea16ae3e-ee75-44da-ae00-59bfcd7e9a4d}, !- Handle
  Medium Office Lighting Summer Design Day Schedule 1, !- Name
  {54409e23-f635-4ed7-87ff-53fae0249eef}, !- Schedule Type Limits Name
  ,                                       !- Interpolate to Timestep
  6,                                      !- Hour 1
  0,                                      !- Minute 1
  1,                                      !- Value Until Time 1
  24,                                     !- Hour 2
  0,                                      !- Minute 2
  0;                                      !- Value Until Time 2

OS:Schedule:Day,
  {cb85c8ab-e088-457a-a848-acc001aacac4}, !- Handle
  Medium Office Lighting Winter Design Day Schedule, !- Name
  ,                                       !- Schedule Type Limits Name
  ,                                       !- Interpolate to Timestep
  24,                                     !- Hour 1
  0,                                      !- Minute 1
  0;                                      !- Value Until Time 1

OS:Schedule:Day,
  {d86f70b0-cb59-44db-9a11-8f448897d5d2}, !- Handle
  Medium Office Lighting Winter Design Day Schedule 1, !- Name
  {54409e23-f635-4ed7-87ff-53fae0249eef}, !- Schedule Type Limits Name
  ,                                       !- Interpolate to Timestep
  24,                                     !- Hour 1
  0,                                      !- Minute 1
  0;                                      !- Value Until Time 1

OS:Schedule:Rule,
  {d84b6dc2-a6d0-4b16-8053-c76df59f6675}, !- Handle
  Medium Office Lighting Schedule Weekdays Rule, !- Name
  {d00c9084-8dc9-4e00-850f-247e2f387915}, !- Schedule Ruleset Name
  1,                                      !- Rule Order
  {a99d82d6-a584-4767-ab3e-f3d9663e2071}, !- Day Schedule Name
  ,                                       !- Apply Sunday
  Yes,                                    !- Apply Monday
  Yes,                                    !- Apply Tuesday
  Yes,                                    !- Apply Wednesday
  Yes,                                    !- Apply Thursday
  Yes;                                    !- Apply Friday

OS:Schedule:Day,
  {a99d82d6-a584-4767-ab3e-f3d9663e2071}, !- Handle
  Medium Office Lighting Weekdays Schedule, !- Name
  {54409e23-f635-4ed7-87ff-53fae0249eef}, !- Schedule Type Limits Name
  ,                                       !- Interpolate to Timestep
  5,                                      !- Hour 1
  0,                                      !- Minute 1
  0.05,                                   !- Value Until Time 1
  7,                                      !- Hour 2
  0,                                      !- Minute 2
  0.1,                                    !- Value Until Time 2
  8,                                      !- Hour 3
  0,                                      !- Minute 3
  0.3,                                    !- Value Until Time 3
  17,                                     !- Hour 4
  0,                                      !- Minute 4
  0.9,                                    !- Value Until Time 4
  18,                                     !- Hour 5
  0,                                      !- Minute 5
  0.7,                                    !- Value Until Time 5
  20,                                     !- Hour 6
  0,                                      !- Minute 6
  0.5,                                    !- Value Until Time 6
  22,                                     !- Hour 7
  0,                                      !- Minute 7
  0.3,                                    !- Value Until Time 7
  23,                                     !- Hour 8
  0,                                      !- Minute 8
  0.1,                                    !- Value Until Time 8
  24,                                     !- Hour 9
  0,                                      !- Minute 9
  0.05;                                   !- Value Until Time 9

OS:Schedule:Rule,
  {a94298db-0257-4854-b2c4-8e455f1140cd}, !- Handle
  Medium Office Lighting Schedule Saturday Rule, !- Name
  {d00c9084-8dc9-4e00-850f-247e2f387915}, !- Schedule Ruleset Name
  0,                                      !- Rule Order
  {db5446cd-5254-48c8-b9c9-900af513217b}, !- Day Schedule Name
  ,                                       !- Apply Sunday
  ,                                       !- Apply Monday
  ,                                       !- Apply Tuesday
  ,                                       !- Apply Wednesday
  ,                                       !- Apply Thursday
  ,                                       !- Apply Friday
  Yes;                                    !- Apply Saturday

OS:Schedule:Day,
  {db5446cd-5254-48c8-b9c9-900af513217b}, !- Handle
  Medium Office Lighting Saturday Schedule, !- Name
  {54409e23-f635-4ed7-87ff-53fae0249eef}, !- Schedule Type Limits Name
  ,                                       !- Interpolate to Timestep
  6,                                      !- Hour 1
  0,                                      !- Minute 1
  0.05,                                   !- Value Until Time 1
  8,                                      !- Hour 2
  0,                                      !- Minute 2
  0.1,                                    !- Value Until Time 2
  14,                                     !- Hour 3
  0,                                      !- Minute 3
  0.5,                                    !- Value Until Time 3
  17,                                     !- Hour 4
  0,                                      !- Minute 4
  0.15,                                   !- Value Until Time 4
  24,                                     !- Hour 5
  0,                                      !- Minute 5
  0.05;                                   !- Value Until Time 5

OS:Schedule:Ruleset,
  {12c95987-3743-4b59-8a5c-dff89194588c}, !- Handle
  Medium Office Electric Equipment Schedule, !- Name
  {54409e23-f635-4ed7-87ff-53fae0249eef}, !- Schedule Type Limits Name
  {a8bfa8cb-6ef4-4344-82a6-691acf1274bc}, !- Default Day Schedule Name
  {08621010-02e7-45d6-ad49-908c98b37660}, !- Summer Design Day Schedule Name
  {c40e72f0-0875-409d-96a5-099a01d311a2}; !- Winter Design Day Schedule Name

OS:Schedule:Day,
  {a8bfa8cb-6ef4-4344-82a6-691acf1274bc}, !- Handle
  Medium Office Electric Equipment All Other Days Schedule, !- Name
  {54409e23-f635-4ed7-87ff-53fae0249eef}, !- Schedule Type Limits Name
  ,                                       !- Interpolate to Timestep
  24,                                     !- Hour 1
  0,                                      !- Minute 1
  0.3;                                    !- Value Until Time 1

OS:Schedule:Day,
  {e155bfbe-0f3e-46c0-ac62-75ead0b3c477}, !- Handle
  Medium Office Electric Equipment Summer Design Day Schedule, !- Name
  ,                                       !- Schedule Type Limits Name
  ,                                       !- Interpolate to Timestep
  6,                                      !- Hour 1
  0,                                      !- Minute 1
  1,                                      !- Value Until Time 1
  24,                                     !- Hour 2
  0,                                      !- Minute 2
  0;                                      !- Value Until Time 2

OS:Schedule:Day,
  {08621010-02e7-45d6-ad49-908c98b37660}, !- Handle
  Medium Office Electric Equipment Summer Design Day Schedule 1, !- Name
  {54409e23-f635-4ed7-87ff-53fae0249eef}, !- Schedule Type Limits Name
  ,                                       !- Interpolate to Timestep
  6,                                      !- Hour 1
  0,                                      !- Minute 1
  1,                                      !- Value Until Time 1
  24,                                     !- Hour 2
  0,                                      !- Minute 2
  0;                                      !- Value Until Time 2

OS:Schedule:Day,
  {8a747c12-c3e7-45a6-9560-b1acf6996013}, !- Handle
  Medium Office Electric Equipment Winter Design Day Schedule, !- Name
  ,                                       !- Schedule Type Limits Name
  ,                                       !- Interpolate to Timestep
  24,                                     !- Hour 1
  0,                                      !- Minute 1
  0;                                      !- Value Until Time 1

OS:Schedule:Day,
  {c40e72f0-0875-409d-96a5-099a01d311a2}, !- Handle
  Medium Office Electric Equipment Winter Design Day Schedule 1, !- Name
  {54409e23-f635-4ed7-87ff-53fae0249eef}, !- Schedule Type Limits Name
  ,                                       !- Interpolate to Timestep
  24,                                     !- Hour 1
  0,                                      !- Minute 1
  0;                                      !- Value Until Time 1

OS:Schedule:Rule,
  {1118d10a-ff1d-4ae4-81b0-425397923862}, !- Handle
  Medium Office Electric Equipment Schedule Weekdays Rule, !- Name
  {12c95987-3743-4b59-8a5c-dff89194588c}, !- Schedule Ruleset Name
  1,                                      !- Rule Order
  {60fa98c2-a0e9-4bdc-aa54-f1ad8065dd9b}, !- Day Schedule Name
  ,                                       !- Apply Sunday
  Yes,                                    !- Apply Monday
  Yes,                                    !- Apply Tuesday
  Yes,                                    !- Apply Wednesday
  Yes,                                    !- Apply Thursday
  Yes;                                    !- Apply Friday

OS:Schedule:Day,
  {60fa98c2-a0e9-4bdc-aa54-f1ad8065dd9b}, !- Handle
  Medium Office Electric Equipment Weekdays Schedule, !- Name
  {54409e23-f635-4ed7-87ff-53fae0249eef}, !- Schedule Type Limits Name
  ,                                       !- Interpolate to Timestep
  8,                                      !- Hour 1
  0,                                      !- Minute 1
  0.4,                                    !- Value Until Time 1
  12,                                     !- Hour 2
  0,                                      !- Minute 2
  0.9,                                    !- Value Until Time 2
  13,                                     !- Hour 3
  0,                                      !- Minute 3
  0.8,                                    !- Value Until Time 3
  17,                                     !- Hour 4
  0,                                      !- Minute 4
  0.9,                                    !- Value Until Time 4
  18,                                     !- Hour 5
  0,                                      !- Minute 5
  0.8,                                    !- Value Until Time 5
  20,                                     !- Hour 6
  0,                                      !- Minute 6
  0.6,                                    !- Value Until Time 6
  22,                                     !- Hour 7
  0,                                      !- Minute 7
  0.5,                                    !- Value Until Time 7
  24,                                     !- Hour 8
  0,                                      !- Minute 8
  0.4;                                    !- Value Until Time 8

OS:Schedule:Rule,
  {b10fa9c4-6877-45e6-9eef-9b3345ad2b1a}, !- Handle
  Medium Office Electric Equipment Schedule Saturday Rule, !- Name
  {12c95987-3743-4b59-8a5c-dff89194588c}, !- Schedule Ruleset Name
  0,                                      !- Rule Order
  {0419f18e-6824-4c63-8ff6-7a94b622902d}, !- Day Schedule Name
  ,                                       !- Apply Sunday
  ,                                       !- Apply Monday
  ,                                       !- Apply Tuesday
  ,                                       !- Apply Wednesday