
OS:Version,
  {57acad9e-596d-427d-9ac3-e6db1af04bcc}, !- Handle
  1.4.0;                                  !- Version Identifier

OS:Schedule:Constant,
  {61ee91e7-3892-4844-8796-1f9cc0409717}, !- Handle
  Always On Discrete,                     !- Name
  {e432348a-c968-4329-88fd-fc07d24578b5}, !- Schedule Type Limits Name
  1;                                      !- Value

OS:ScheduleTypeLimits,
  {e432348a-c968-4329-88fd-fc07d24578b5}, !- Handle
  Always On Discrete Limits,              !- Name
  0,                                      !- Lower Limit Value {BasedOnField A4}
  1,                                      !- Upper Limit Value {BasedOnField A4}
  Discrete,                               !- Numeric Type
  Availability;                           !- Unit Type

OS:DefaultScheduleSet,
  {8509cfe9-e908-4614-91b3-887eaa98b89e}, ! Handle
  FullServiceRestaurant Dining Schedules, ! Name
  ,                                       ! Hours of Operation Schedule Name
  {a696c745-ef43-4139-8222-c4232b4287ae}, ! Number of People Schedule Name
  {ecb231b4-f3a6-4987-999d-d122cf061d83}, ! People Activity Level Schedule Name
  {b69383a6-032c-402c-88eb-8a3842b7072e}, ! Lighting Schedule Name
  {32d14667-3879-47ab-915b-e0d2014ef974}, ! Electric Equipment Schedule Name
  {f0b04159-9178-435d-b4d0-38479102dbc4}, ! Gas Equipment Schedule Name
  ,                                       ! Hot Water Equipment Schedule Name
  {b27247b5-6bf5-4840-95bd-04ebaa9df578}, ! Infiltration Schedule Name
  ,                                       ! Steam Equipment Schedule Name
  ;                                       ! Other Equipment Schedule Name

OS:DefaultScheduleSet,
  {0104a945-7fb3-49b3-9e3c-d5af31a39cb2}, ! Handle
  FullServiceRestaurant Kitchen Schedules, ! Name
  ,                                       ! Hours of Operation Schedule Name
  {a696c745-ef43-4139-8222-c4232b4287ae}, ! Number of People Schedule Name
  {ecb231b4-f3a6-4987-999d-d122cf061d83}, ! People Activity Level Schedule Name
  {b69383a6-032c-402c-88eb-8a3842b7072e}, ! Lighting Schedule Name
  {32d14667-3879-47ab-915b-e0d2014ef974}, ! Electric Equipment Schedule Name
  {f0b04159-9178-435d-b4d0-38479102dbc4}, ! Gas Equipment Schedule Name
  ,                                       ! Hot Water Equipment Schedule Name
  {b27247b5-6bf5-4840-95bd-04ebaa9df578}, ! Infiltration Schedule Name
  ,                                       ! Steam Equipment Schedule Name
  ;                                       ! Other Equipment Schedule Name

OS:DefaultScheduleSet,
  {7c2ab095-9752-49d4-9676-2efac5afb71d}, ! Handle
  Hospital Corridor Schedules,            ! Name
  ,                                       ! Hours of Operation Schedule Name
  {0ceffabc-ca11-46b7-8670-7e750cbe792c}, ! Number of People Schedule Name
  {4d78c5b8-19bd-46d5-a82f-cb4c9fbc91f6}, ! People Activity Level Schedule Name
  {08bddeb5-e2d3-4a94-9663-15475035251c}, ! Lighting Schedule Name
  {77a6c44f-989c-474d-a47d-bd1bbeac0581}, ! Electric Equipment Schedule Name
  ,                                       ! Gas Equipment Schedule Name
  ,                                       ! Hot Water Equipment Schedule Name
  {885a67f9-ca8c-4bab-a0b7-ec5b2979daf3}, ! Infiltration Schedule Name
  ,                                       ! Steam Equipment Schedule Name
  ;                                       ! Other Equipment Schedule Name

OS:DefaultScheduleSet,
  {a2fbacb2-750f-4e72-87c5-9a24d57b886e}, ! Handle
  Hospital Dining Schedules,              ! Name
  ,                                       ! Hours of Operation Schedule Name
  {0ceffabc-ca11-46b7-8670-7e750cbe792c}, ! Number of People Schedule Name
  {4d78c5b8-19bd-46d5-a82f-cb4c9fbc91f6}, ! People Activity Level Schedule Name
  {08bddeb5-e2d3-4a94-9663-15475035251c}, ! Lighting Schedule Name
  {77a6c44f-989c-474d-a47d-bd1bbeac0581}, ! Electric Equipment Schedule Name
  ,                                       ! Gas Equipment Schedule Name
  ,                                       ! Hot Water Equipment Schedule Name
  {885a67f9-ca8c-4bab-a0b7-ec5b2979daf3}, ! Infiltration Schedule Name
  ,                                       ! Steam Equipment Schedule Name
  ;                                       ! Other Equipment Schedule Name

OS:DefaultScheduleSet,
  {6327e852-c3e3-498f-80f5-b4eb51c17f97}, ! Handle
  Hospital ER Exam Schedules,             ! Name
  ,                                       ! Hours of Operation Schedule Name
  {0ceffabc-ca11-46b7-8670-7e750cbe792c}, ! Number of People Schedule Name
  {4d78c5b8-19bd-46d5-a82f-cb4c9fbc91f6}, ! People Activity Level Schedule Name
  {08bddeb5-e2d3-4a94-9663-15475035251c}, ! Lighting Schedule Name
  {77a6c44f-989c-474d-a47d-bd1bbeac0581}, ! Electric Equipment Schedule Name
  ,                                       ! Gas Equipment Schedule Name
  ,                                       ! Hot Water Equipment Schedule Name
  {885a67f9-ca8c-4bab-a0b7-ec5b2979daf3}, ! Infiltration Schedule Name
  ,                                       ! Steam Equipment Schedule Name
  ;                                       ! Other Equipment Schedule Name

OS:DefaultScheduleSet,
  {51d57c4d-cc4f-4c64-82a6-d3d48861ed0c}, ! Handle
  Hospital ER NurseStn Schedules,         ! Name
  ,                                       ! Hours of Operation Schedule Name
  {0ceffabc-ca11-46b7-8670-7e750cbe792c}, ! Number of People Schedule Name
  {4d78c5b8-19bd-46d5-a82f-cb4c9fbc91f6}, ! People Activity Level Schedule Name
  {08bddeb5-e2d3-4a94-9663-15475035251c}, ! Lighting Schedule Name
  {77a6c44f-989c-474d-a47d-bd1bbeac0581}, ! Electric Equipment Schedule Name
  ,                                       ! Gas Equipment Schedule Name
  ,                                       ! Hot Water Equipment Schedule Name
  {885a67f9-ca8c-4bab-a0b7-ec5b2979daf3}, ! Infiltration Schedule Name
  ,                                       ! Steam Equipment Schedule Name
  ;                                       ! Other Equipment Schedule Name

OS:DefaultScheduleSet,
  {1107fad3-5bae-4f78-836a-bc1dd6edddfa}, ! Handle
  Hospital ER Trama Schedules,            ! Name
  ,                                       ! Hours of Operation Schedule Name
  {0ceffabc-ca11-46b7-8670-7e750cbe792c}, ! Number of People Schedule Name
  {4d78c5b8-19bd-46d5-a82f-cb4c9fbc91f6}, ! People Activity Level Schedule Name
  {08bddeb5-e2d3-4a94-9663-15475035251c}, ! Lighting Schedule Name
  {77a6c44f-989c-474d-a47d-bd1bbeac0581}, ! Electric Equipment Schedule Name
  ,                                       ! Gas Equipment Schedule Name
  ,                                       ! Hot Water Equipment Schedule Name
  {885a67f9-ca8c-4bab-a0b7-ec5b2979daf3}, ! Infiltration Schedule Name
  ,                                       ! Steam Equipment Schedule Name
  ;                                       ! Other Equipment Schedule Name

OS:DefaultScheduleSet,
  {f7aebd13-1627-4e51-9ef8-f6f36ee69b44}, ! Handle
  Hospital ER Triage Schedules,           ! Name
  ,                                       ! Hours of Operation Schedule Name
  {0ceffabc-ca11-46b7-8670-7e750cbe792c}, ! Number of People Schedule Name
  {4d78c5b8-19bd-46d5-a82f-cb4c9fbc91f6}, ! People Activity Level Schedule Name
  {08bddeb5-e2d3-4a94-9663-15475035251c}, ! Lighting Schedule Name
  {77a6c44f-989c-474d-a47d-bd1bbeac0581}, ! Electric Equipment Schedule Name
  ,                                       ! Gas Equipment Schedule Name
  ,                                       ! Hot Water Equipment Schedule Name
  {885a67f9-ca8c-4bab-a0b7-ec5b2979daf3}, ! Infiltration Schedule Name
  ,                                       ! Steam Equipment Schedule Name
  ;                                       ! Other Equipment Schedule Name

OS:DefaultScheduleSet,
  {08f53720-d681-4033-8288-828c100d7f4d}, ! Handle
  Hospital ICU NurseStn Schedules,        ! Name
  ,                                       ! Hours of Operation Schedule Name
  {0ceffabc-ca11-46b7-8670-7e750cbe792c}, ! Number of People Schedule Name
  {4d78c5b8-19bd-46d5-a82f-cb4c9fbc91f6}, ! People Activity Level Schedule Name
  {08bddeb5-e2d3-4a94-9663-15475035251c}, ! Lighting Schedule Name
  {77a6c44f-989c-474d-a47d-bd1bbeac0581}, ! Electric Equipment Schedule Name
  ,                                       ! Gas Equipment Schedule Name
  ,                                       ! Hot Water Equipment Schedule Name
  {885a67f9-ca8c-4bab-a0b7-ec5b2979daf3}, ! Infiltration Schedule Name
  ,                                       ! Steam Equipment Schedule Name
  ;                                       ! Other Equipment Schedule Name

OS:DefaultScheduleSet,
  {b70bd318-4d76-4430-b9df-0193f286c627}, ! Handle
  Hospital ICU Open Schedules,            ! Name
  ,                                       ! Hours of Operation Schedule Name
  {0ceffabc-ca11-46b7-8670-7e750cbe792c}, ! Number of People Schedule Name
  {4d78c5b8-19bd-46d5-a82f-cb4c9fbc91f6}, ! People Activity Level Schedule Name
  {08bddeb5-e2d3-4a94-9663-15475035251c}, ! Lighting Schedule Name
  {77a6c44f-989c-474d-a47d-bd1bbeac0581}, ! Electric Equipment Schedule Name
  ,                                       ! Gas Equipment Schedule Name
  ,                                       ! Hot Water Equipment Schedule Name
  {885a67f9-ca8c-4bab-a0b7-ec5b2979daf3}, ! Infiltration Schedule Name
  ,                                       ! Steam Equipment Schedule Name
  ;                                       ! Other Equipment Schedule Name

OS:DefaultScheduleSet,
  {b5cca12f-fd3a-4746-b093-77ba0cede4b8}, ! Handle
  Hospital ICU PatRm Schedules,           ! Name
  ,                                       ! Hours of Operation Schedule Name
  {0ceffabc-ca11-46b7-8670-7e750cbe792c}, ! Number of People Schedule Name
  {4d78c5b8-19bd-46d5-a82f-cb4c9fbc91f6}, ! People Activity Level Schedule Name
  {08bddeb5-e2d3-4a94-9663-15475035251c}, ! Lighting Schedule Name
  {77a6c44f-989c-474d-a47d-bd1bbeac0581}, ! Electric Equipment Schedule Name
  ,                                       ! Gas Equipment Schedule Name
  ,                                       ! Hot Water Equipment Schedule Name
  {885a67f9-ca8c-4bab-a0b7-ec5b2979daf3}, ! Infiltration Schedule Name
  ,                                       ! Steam Equipment Schedule Name
  ;                                       ! Other Equipment Schedule Name

OS:DefaultScheduleSet,
  {128267bf-9c96-4ec4-a284-ee569f6e85a3}, ! Handle
  Hospital Kitchen Schedules,             ! Name
  ,                                       ! Hours of Operation Schedule Name
  {0ceffabc-ca11-46b7-8670-7e750cbe792c}, ! Number of People Schedule Name
  {4d78c5b8-19bd-46d5-a82f-cb4c9fbc91f6}, ! People Activity Level Schedule Name
  {08bddeb5-e2d3-4a94-9663-15475035251c}, ! Lighting Schedule Name
  {77a6c44f-989c-474d-a47d-bd1bbeac0581}, ! Electric Equipment Schedule Name
  {1f7167ce-8652-4a5f-be9c-e7dc49f3e388}, ! Gas Equipment Schedule Name
  ,                                       ! Hot Water Equipment Schedule Name
  {885a67f9-ca8c-4bab-a0b7-ec5b2979daf3}, ! Infiltration Schedule Name
  ,                                       ! Steam Equipment Schedule Name
  ;                                       ! Other Equipment Schedule Name

OS:DefaultScheduleSet,
  {8b0c8113-0d72-4867-87ea-6dca02b5940a}, ! Handle
  Hospital Lab Schedules,                 ! Name
  ,                                       ! Hours of Operation Schedule Name
  {0ceffabc-ca11-46b7-8670-7e750cbe792c}, ! Number of People Schedule Name
  {4d78c5b8-19bd-46d5-a82f-cb4c9fbc91f6}, ! People Activity Level Schedule Name
  {08bddeb5-e2d3-4a94-9663-15475035251c}, ! Lighting Schedule Name
  {77a6c44f-989c-474d-a47d-bd1bbeac0581}, ! Electric Equipment Schedule Name
  ,                                       ! Gas Equipment Schedule Name
  ,                                       ! Hot Water Equipment Schedule Name
  {885a67f9-ca8c-4bab-a0b7-ec5b2979daf3}, ! Infiltration Schedule Name
  ,                                       ! Steam Equipment Schedule Name
  ;                                       ! Other Equipment Schedule Name

OS:DefaultScheduleSet,
  {4eca31e5-a546-41c7-a50d-37741401bbf5}, ! Handle
  Hospital Lobby Schedules,               ! Name
  ,                                       ! Hours of Operation Schedule Name
  {0ceffabc-ca11-46b7-8670-7e750cbe792c}, ! Number of People Schedule Name
  {4d78c5b8-19bd-46d5-a82f-cb4c9fbc91f6}, ! People Activity Level Schedule Name
  {08bddeb5-e2d3-4a94-9663-15475035251c}, ! Lighting Schedule Name
  {77a6c44f-989c-474d-a47d-bd1bbeac0581}, ! Electric Equipment Schedule Name
  ,                                       ! Gas Equipment Schedule Name
  ,                                       ! Hot Water Equipment Schedule Name
  {885a67f9-ca8c-4bab-a0b7-ec5b2979daf3}, ! Infiltration Schedule Name
  ,                                       ! Steam Equipment Schedule Name
  ;                                       ! Other Equipment Schedule Name

OS:DefaultScheduleSet,
  {1460fe82-6b14-4bd6-b221-8709837acd7f}, ! Handle
  Hospital NurseStn Schedules,            ! Name
  ,                                       ! Hours of Operation Schedule Name
  {0ceffabc-ca11-46b7-8670-7e750cbe792c}, ! Number of People Schedule Name
  {4d78c5b8-19bd-46d5-a82f-cb4c9fbc91f6}, ! People Activity Level Schedule Name
  {08bddeb5-e2d3-4a94-9663-15475035251c}, ! Lighting Schedule Name
  {77a6c44f-989c-474d-a47d-bd1bbeac0581}, ! Electric Equipment Schedule Name
  ,                                       ! Gas Equipment Schedule Name
  ,                                       ! Hot Water Equipment Schedule Name
  {885a67f9-ca8c-4bab-a0b7-ec5b2979daf3}, ! Infiltration Schedule Name
  ,                                       ! Steam Equipment Schedule Name
  ;                                       ! Other Equipment Schedule Name

OS:DefaultScheduleSet,
  {5c146721-f14f-4400-b9fc-e1127d80b014}, ! Handle
  Hospital OR Schedules,                  ! Name
  ,                                       ! Hours of Operation Schedule Name
  {0ceffabc-ca11-46b7-8670-7e750cbe792c}, ! Number of People Schedule Name
  {4d78c5b8-19bd-46d5-a82f-cb4c9fbc91f6}, ! People Activity Level Schedule Name
  {08bddeb5-e2d3-4a94-9663-15475035251c}, ! Lighting Schedule Name
  {77a6c44f-989c-474d-a47d-bd1bbeac0581}, ! Electric Equipment Schedule Name
  ,                                       ! Gas Equipment Schedule Name
  ,                                       ! Hot Water Equipment Schedule Name
  {885a67f9-ca8c-4bab-a0b7-ec5b2979daf3}, ! Infiltration Schedule Name
  ,                                       ! Steam Equipment Schedule Name
  ;                                       ! Other Equipment Schedule Name

OS:DefaultScheduleSet,
  {6cc8007f-6cf8-40a6-97a3-2662bdf32b14}, ! Handle
  Hospital Office Schedules,              ! Name
  ,                                       ! Hours of Operation Schedule Name
  {0ceffabc-ca11-46b7-8670-7e750cbe792c}, ! Number of People Schedule Name
  {4d78c5b8-19bd-46d5-a82f-cb4c9fbc91f6}, ! People Activity Level Schedule Name
  {08bddeb5-e2d3-4a94-9663-15475035251c}, ! Lighting Schedule Name
  {77a6c44f-989c-474d-a47d-bd1bbeac0581}, ! Electric Equipment Schedule Name
  ,                                       ! Gas Equipment Schedule Name
  ,                                       ! Hot Water Equipment Schedule Name
  {885a67f9-ca8c-4bab-a0b7-ec5b2979daf3}, ! Infiltration Schedule Name
  ,                                       ! Steam Equipment Schedule Name
  ;                                       ! Other Equipment Schedule Name

OS:DefaultScheduleSet,
  {b5db9a36-fc02-41fc-b5ff-4268a2043bcb}, ! Handle
  Hospital PatCorridor Schedules,         ! Name
  ,                                       ! Hours of Operation Schedule Name
  {0ceffabc-ca11-46b7-8670-7e750cbe792c}, ! Number of People Schedule Name
  {4d78c5b8-19bd-46d5-a82f-cb4c9fbc91f6}, ! People Activity Level Schedule Name
  {08bddeb5-e2d3-4a94-9663-15475035251c}, ! Lighting Schedule Name
  {77a6c44f-989c-474d-a47d-bd1bbeac0581}, ! Electric Equipment Schedule Name
  ,                                       ! Gas Equipment Schedule Name
  ,                                       ! Hot Water Equipment Schedule Name
  {885a67f9-ca8c-4bab-a0b7-ec5b2979daf3}, ! Infiltration Schedule Name
  ,                                       ! Steam Equipment Schedule Name
  ;                                       ! Other Equipment Schedule Name

OS:DefaultScheduleSet,
  {89a4fb2d-5213-43b8-bde2-2e6c6cb02031}, ! Handle
  Hospital PatRoom Schedules,             ! Name
  ,                                       ! Hours of Operation Schedule Name
  {0ceffabc-ca11-46b7-8670-7e750cbe792c}, ! Number of People Schedule Name
  {4d78c5b8-19bd-46d5-a82f-cb4c9fbc91f6}, ! People Activity Level Schedule Name
  {08bddeb5-e2d3-4a94-9663-15475035251c}, ! Lighting Schedule Name
  {77a6c44f-989c-474d-a47d-bd1bbeac0581}, ! Electric Equipment Schedule Name
  ,                                       ! Gas Equipment Schedule Name
  ,                                       ! Hot Water Equipment Schedule Name
  {885a67f9-ca8c-4bab-a0b7-ec5b2979daf3}, ! Infiltration Schedule Name
  ,                                       ! Steam Equipment Schedule Name
  ;                                       ! Other Equipment Schedule Name

OS:DefaultScheduleSet,
  {8c376a87-610b-401a-be58-e31cde5fca8d}, ! Handle
  Hospital PhysTherapy Schedules,         ! Name
  ,                                       ! Hours of Operation Schedule Name
  {0ceffabc-ca11-46b7-8670-7e750cbe792c}, ! Number of People Schedule Name
  {4d78c5b8-19bd-46d5-a82f-cb4c9fbc91f6}, ! People Activity Level Schedule Name
  {08bddeb5-e2d3-4a94-9663-15475035251c}, ! Lighting Schedule Name
  {77a6c44f-989c-474d-a47d-bd1bbeac0581}, ! Electric Equipment Schedule Name
  ,                                       ! Gas Equipment Schedule Name
  ,                                       ! Hot Water Equipment Schedule Name
  {885a67f9-ca8c-4bab-a0b7-ec5b2979daf3}, ! Infiltration Schedule Name
  ,                                       ! Steam Equipment Schedule Name
  ;                                       ! Other Equipment Schedule Name

OS:DefaultScheduleSet,
  {0048ff14-dbbd-4b0f-a817-f23b44aef1b8}, ! Handle
  Hospital Radiology Schedules,           ! Name
  ,                                       ! Hours of Operation Schedule Name
  {0ceffabc-ca11-46b7-8670-7e750cbe792c}, ! Number of People Schedule Name
  {4d78c5b8-19bd-46d5-a82f-cb4c9fbc91f6}, ! People Activity Level Schedule Name
  {08bddeb5-e2d3-4a94-9663-15475035251c}, ! Lighting Schedule Name
  {77a6c44f-989c-474d-a47d-bd1bbeac0581}, ! Electric Equipment Schedule Name
  ,                                       ! Gas Equipment Schedule Name
  ,                                       ! Hot Water Equipment Schedule Name
  {885a67f9-ca8c-4bab-a0b7-ec5b2979daf3}, ! Infiltration Schedule Name
  ,                                       ! Steam Equipment Schedule Name
  ;                                       ! Other Equipment Schedule Name

OS:DefaultScheduleSet,
  {776b34ad-98aa-472d-8fed-6b755df24272}, ! Handle
  LargeHotel Banquet Schedules,           ! Name
  ,                                       ! Hours of Operation Schedule Name
  {c32d3300-c5bc-4b42-86dc-64113d15e710}, ! Number of People Schedule Name
  {2d8af32f-4b4b-4e11-ab00-946e277b145b}, ! People Activity Level Schedule Name
  {1db2a997-d6f4-4990-9082-172223d86993}, ! Lighting Schedule Name
  {5264524b-79b4-4268-9385-ac23fdb79cc5}, ! Electric Equipment Schedule Name
  ,                                       ! Gas Equipment Schedule Name
  ,                                       ! Hot Water Equipment Schedule Name
  {9776ae78-3dd1-4fcf-98b1-77b70c5a5da6}, ! Infiltration Schedule Name
  ,                                       ! Steam Equipment Schedule Name
  ;                                       ! Other Equipment Schedule Name

OS:DefaultScheduleSet,
  {4d1d6c93-ea64-4dd9-a6ba-88a6cf5a04e5}, ! Handle
  LargeHotel Cafe Schedules,              ! Name
  ,                                       ! Hours of Operation Schedule Name
  {c32d3300-c5bc-4b42-86dc-64113d15e710}, ! Number of People Schedule Name
  {2d8af32f-4b4b-4e11-ab00-946e277b145b}, ! People Activity Level Schedule Name
  {1db2a997-d6f4-4990-9082-172223d86993}, ! Lighting Schedule Name
  {5264524b-79b4-4268-9385-ac23fdb79cc5}, ! Electric Equipment Schedule Name
  ,                                       ! Gas Equipment Schedule Name
  ,                                       ! Hot Water Equipment Schedule Name
  {9776ae78-3dd1-4fcf-98b1-77b70c5a5da6}, ! Infiltration Schedule Name
  ,                                       ! Steam Equipment Schedule Name
  ;                                       ! Other Equipment Schedule Name

OS:DefaultScheduleSet,
  {70c28263-219a-4330-9fa2-69465af79444}, ! Handle
  LargeHotel Corridor Schedules,          ! Name
  ,                                       ! Hours of Operation Schedule Name
  {c32d3300-c5bc-4b42-86dc-64113d15e710}, ! Number of People Schedule Name
  {2d8af32f-4b4b-4e11-ab00-946e277b145b}, ! People Activity Level Schedule Name
  {1db2a997-d6f4-4990-9082-172223d86993}, ! Lighting Schedule Name
  {5264524b-79b4-4268-9385-ac23fdb79cc5}, ! Electric Equipment Schedule Name
  ,                                       ! Gas Equipment Schedule Name
  ,                                       ! Hot Water Equipment Schedule Name
  {9776ae78-3dd1-4fcf-98b1-77b70c5a5da6}, ! Infiltration Schedule Name
  ,                                       ! Steam Equipment Schedule Name
  ;                                       ! Other Equipment Schedule Name

OS:DefaultScheduleSet,
  {a20c55cf-985e-4e51-a834-6be15ab23764}, ! Handle
  LargeHotel GuestRoom Schedules,         ! Name
  ,                                       ! Hours of Operation Schedule Name
  {83e45139-6251-4bb7-94f6-5b02cbbbc721}, ! Number of People Schedule Name
  {2d8af32f-4b4b-4e11-ab00-946e277b145b}, ! People Activity Level Schedule Name
  {1db2a997-d6f4-4990-9082-172223d86993}, ! Lighting Schedule Name
  {4f5bc33b-3f7a-4908-a841-04dd7f1cb0a2}, ! Electric Equipment Schedule Name
  ,                                       ! Gas Equipment Schedule Name
  ,                                       ! Hot Water Equipment Schedule Name
  {9776ae78-3dd1-4fcf-98b1-77b70c5a5da6}, ! Infiltration Schedule Name
  ,                                       ! Steam Equipment Schedule Name
  ;                                       ! Other Equipment Schedule Name

OS:DefaultScheduleSet,
  {e7dbca3a-b1f5-42dc-a2b6-d807e6a7b663}, ! Handle
  LargeHotel Kitchen Schedules,           ! Name
  ,                                       ! Hours of Operation Schedule Name
  {c32d3300-c5bc-4b42-86dc-64113d15e710}, ! Number of People Schedule Name
  {2d8af32f-4b4b-4e11-ab00-946e277b145b}, ! People Activity Level Schedule Name
  {1db2a997-d6f4-4990-9082-172223d86993}, ! Lighting Schedule Name
  {30c3e8fb-11ea-4210-bc7e-c07485238893}, ! Electric Equipment Schedule Name
  {a9325151-de12-46b0-90f6-6e74595ff8de}, ! Gas Equipment Schedule Name
  ,                                       ! Hot Water Equipment Schedule Name
  {9776ae78-3dd1-4fcf-98b1-77b70c5a5da6}, ! Infiltration Schedule Name
  ,                                       ! Steam Equipment Schedule Name
  ;                                       ! Other Equipment Schedule Name

OS:DefaultScheduleSet,
  {565ccc1a-6ace-41a5-af9b-2e3da816c025}, ! Handle
  LargeHotel Laundry Schedules,           ! Name
  ,                                       ! Hours of Operation Schedule Name
  {c32d3300-c5bc-4b42-86dc-64113d15e710}, ! Number of People Schedule Name
  {2d8af32f-4b4b-4e11-ab00-946e277b145b}, ! People Activity Level Schedule Name
  {1db2a997-d6f4-4990-9082-172223d86993}, ! Lighting Schedule Name
  {277da7cd-7d88-4519-aea9-a4993f81ceb3}, ! Electric Equipment Schedule Name
  {7a7c284f-9898-43b9-98ac-98714afcd0d3}, ! Gas Equipment Schedule Name
  ,                                       ! Hot Water Equipment Schedule Name
  {9776ae78-3dd1-4fcf-98b1-77b70c5a5da6}, ! Infiltration Schedule Name
  ,                                       ! Steam Equipment Schedule Name
  ;                                       ! Other Equipment Schedule Name

OS:DefaultScheduleSet,
  {a6282b31-fc27-4f98-afc6-e0069be1d9db}, ! Handle
  LargeHotel Lobby Schedules,             ! Name
  ,                                       ! Hours of Operation Schedule Name
  {1e4cad37-05ec-4970-ba8c-05a73a7a1abb}, ! Number of People Schedule Name
  {2d8af32f-4b4b-4e11-ab00-946e277b145b}, ! People Activity Level Schedule Name
  {1db2a997-d6f4-4990-9082-172223d86993}, ! Lighting Schedule Name
  {5264524b-79b4-4268-9385-ac23fdb79cc5}, ! Electric Equipment Schedule Name
  ,                                       ! Gas Equipment Schedule Name
  ,                                       ! Hot Water Equipment Schedule Name
  {9776ae78-3dd1-4fcf-98b1-77b70c5a5da6}, ! Infiltration Schedule Name
  ,                                       ! Steam Equipment Schedule Name
  ;                                       ! Other Equipment Schedule Name

OS:DefaultScheduleSet,
  {3228bc77-5996-41b7-b39f-664521869af3}, ! Handle
  LargeHotel Mechanical Schedules,        ! Name
  ,                                       ! Hours of Operation Schedule Name
  {c32d3300-c5bc-4b42-86dc-64113d15e710}, ! Number of People Schedule Name
  {2d8af32f-4b4b-4e11-ab00-946e277b145b}, ! People Activity Level Schedule Name
  {1db2a997-d6f4-4990-9082-172223d86993}, ! Lighting Schedule Name
  {5264524b-79b4-4268-9385-ac23fdb79cc5}, ! Electric Equipment Schedule Name
  ,                                       ! Gas Equipment Schedule Name
  ,                                       ! Hot Water Equipment Schedule Name
  {9776ae78-3dd1-4fcf-98b1-77b70c5a5da6}, ! Infiltration Schedule Name
  ,                                       ! Steam Equipment Schedule Name
  ;                                       ! Other Equipment Schedule Name

OS:DefaultScheduleSet,
  {50dc5a9d-4939-45b1-8702-a36b404bd94d}, ! Handle
  LargeHotel Retail Schedules,            ! Name
  ,                                       ! Hours of Operation Schedule Name
  {c32d3300-c5bc-4b42-86dc-64113d15e710}, ! Number of People Schedule Name
  {2d8af32f-4b4b-4e11-ab00-946e277b145b}, ! People Activity Level Schedule Name
  {1db2a997-d6f4-4990-9082-172223d86993}, ! Lighting Schedule Name
  {5264524b-79b4-4268-9385-ac23fdb79cc5}, ! Electric Equipment Schedule Name
  ,                                       ! Gas Equipment Schedule Name
  ,                                       ! Hot Water Equipment Schedule Name
  {9776ae78-3dd1-4fcf-98b1-77b70c5a5da6}, ! Infiltration Schedule Name
  ,                                       ! Steam Equipment Schedule Name
  ;                                       ! Other Equipment Schedule Name

OS:DefaultScheduleSet,
  {c9da07d5-eeac-42b2-a2c4-59cb1236ec98}, ! Handle
  LargeHotel Storage Schedules,           ! Name
  ,                                       ! Hours of Operation Schedule Name
  {c32d3300-c5bc-4b42-86dc-64113d15e710}, ! Number of People Schedule Name
  {2d8af32f-4b4b-4e11-ab00-946e277b145b}, ! People Activity Level Schedule Name
  {1db2a997-d6f4-4990-9082-172223d86993}, ! Lighting Schedule Name
  {5264524b-79b4-4268-9385-ac23fdb79cc5}, ! Electric Equipment Schedule Name
  ,                                       ! Gas Equipment Schedule Name
  ,                                       ! Hot Water Equipment Schedule Name
  {9776ae78-3dd1-4fcf-98b1-77b70c5a5da6}, ! Infiltration Schedule Name
  ,                                       ! Steam Equipment Schedule Name
  ;                                       ! Other Equipment Schedule Name

OS:DefaultScheduleSet,
  {4158bdc0-ee9e-4a6e-9e8c-9d9cb7d43886}, ! Handle
  LargeOffice Schedules,                  ! Name
  ,                                       ! Hours of Operation Schedule Name
  {f8d9c769-b5a2-4710-b5e1-b4542b85b7d8}, ! Number of People Schedule Name
  {44e8c9ab-fcaf-459b-ba78-35c4fa71430a}, ! People Activity Level Schedule Name
  {353f2f04-cf8e-4fff-863c-74b4c450921c}, ! Lighting Schedule Name
  {dfbfb560-ccb8-4915-9eae-d78df71903b3}, ! Electric Equipment Schedule Name
  ,                                       ! Gas Equipment Schedule Name
  ,                                       ! Hot Water Equipment Schedule Name
  {1510735e-dfef-4fbd-827d-8fb5093a6e88}, ! Infiltration Schedule Name
  ,                                       ! Steam Equipment Schedule Name
  ;                                       ! Other Equipment Schedule Name

OS:DefaultScheduleSet,
  {c2a56e10-0828-4258-be46-95fc55778922}, ! Handle
  MediumOffice Schedules,                 ! Name
  ,                                       ! Hours of Operation Schedule Name
  {78ff0454-16dc-4489-b99b-3ce6a5270574}, ! Number of People Schedule Name
  {a8b3de93-7a5b-4aa7-ab81-81821b8862cb}, ! People Activity Level Schedule Name
  {64dff6ea-87ee-4438-b65f-60220ce30772}, ! Lighting Schedule Name
  {f5e1bba6-2bd0-41f4-bccd-2adffc76519a}, ! Electric Equipment Schedule Name
  ,                                       ! Gas Equipment Schedule Name
  ,                                       ! Hot Water Equipment Schedule Name
  {914d080c-6f67-48af-aec1-40bd0bd8f680}, ! Infiltration Schedule Name
  ,                                       ! Steam Equipment Schedule Name
  ;                                       ! Other Equipment Schedule Name

OS:DefaultScheduleSet,
  {352e700f-61db-47aa-8bc0-690fc61d7232}, ! Handle
  MidriseApartment Apartment Schedules,   ! Name
  ,                                       ! Hours of Operation Schedule Name
  {516ceb0c-4e81-417b-9c45-cc68b57241da}, ! Number of People Schedule Name
  {0cda6526-8a0e-4c3f-9a9e-2697b55f87ef}, ! People Activity Level Schedule Name
  {f8dd4d00-6661-43ab-a2f4-c3c51ed77905}, ! Lighting Schedule Name
  {2727d0d2-e735-49b9-af75-51d004e06863}, ! Electric Equipment Schedule Name