
OS:Version,
  {0770bad8-ddb6-4918-b3a6-e7b203c459e2}, !- Handle
  1.12.4;                                 !- Version Identifier

OS:SimulationControl,
  {b25025c2-ddfe-4c12-9c69-dff55a4e0319}, !- Handle
  Yes,                                    !- Do Zone Sizing Calculation
  Yes,                                    !- Do System Sizing Calculation
  ,                                       !- Do Plant Sizing Calculation
  No,                                     !- Run Simulation for Sizing Periods
  Yes;                                    !- Run Simulation for Weather File Run Periods

OS:Timestep,
  {4eda2eac-c5a8-4cfa-91ef-9a661980101a}, !- Handle
  6;                                      !- Number of Timesteps per Hour

OS:RunPeriod,
  {e1df9d6c-1d96-47bb-b0a0-f7d40eb1a7cd}, !- Handle
  Run Period 1,                           !- Name
  1,                                      !- Begin Month
  1,                                      !- Begin Day of Month
  12,                                     !- End Month
  31,                                     !- End Day of Month
  No,                                     !- Use Weather File Holidays and Special Days
  No,                                     !- Use Weather File Daylight Saving Period
  No,                                     !- Apply Weekend Holiday Rule
  Yes,                                    !- Use Weather File Rain Indicators
  Yes,                                    !- Use Weather File Snow Indicators
  1;                                      !- Number of Times Runperiod to be Repeated

OS:SurfaceConvectionAlgorithm:Inside,
  {bfa6202d-1971-47b0-bbd2-107aca0dc384}, !- Handle
  TARP;                                   !- Algorithm

OS:SurfaceConvectionAlgorithm:Outside,
  {a2b5ef54-1d6e-41d3-8f67-798ae97c5360}, !- Handle
  DOE-2;                                  !- Algorithm

OS:HeatBalanceAlgorithm,
  {51a6d230-3d0e-4839-b933-b06a69cc7000}, !- Handle
  ConductionTransferFunction,             !- Algorithm
  200;                                    !- Surface Temperature Upper Limit {C}

OS:ZoneAirHeatBalanceAlgorithm,
  {594fcb65-de3d-472a-8ea3-da5a25a0587a}, !- Handle
  ThirdOrderBackwardDifference;           !- Algorithm

OS:ConvergenceLimits,
  {aa2d8f32-a618-4746-9b72-d173171bdd66}, !- Handle
  1;                                      !- Minimum System Timestep {minutes}

OS:ShadowCalculation,
  {70bcd214-78f4-45fd-999b-d12e48e530e0}, !- Handle
  20,                                     !- Calculation Frequency
  15000;                                  !- Maximum Figures in Shadow Overlap Calculations

OS:Site,
  {b9fec2fc-fa22-45a4-a0f3-2a4f6f6c8b8d}, !- Handle
  Site 1,                                 !- Name
  41.77,                                  !- Latitude {deg}
  -87.75,                                 !- Longitude {deg}
  -6,                                     !- Time Zone {hr}
  190,                                    !- Elevation {m}
  ;                                       !- Terrain

OS:Site:GroundTemperature:BuildingSurface,
  {e715d6da-542c-4ad5-a531-7dc7d54a4b14}, !- Handle
  19.527,                                 !- January Ground Temperature {C}
  19.502,                                 !- February Ground Temperature {C}
  19.536,                                 !- March Ground Temperature {C}
  19.598,                                 !- April Ground Temperature {C}
  20.002,                                 !- May Ground Temperature {C}
  21.64,                                  !- June Ground Temperature {C}
  22.225,                                 !- July Ground Temperature {C}
  22.375,                                 !- August Ground Temperature {C}
  21.449,                                 !- September Ground Temperature {C}
  20.121,                                 !- October Ground Temperature {C}
  19.802,                                 !- November Ground Temperature {C}
  19.633;                                 !- December Ground Temperature {C}

OS:Site:GroundTemperature:Deep,
  {6afce0bc-0867-4735-bed5-992d25bd7d26}, !- Handle
  19.527,                                 !- January Deep Ground Temperature {C}
  19.502,                                 !- February Deep Ground Temperature {C}
  19.536,                                 !- March Deep Ground Temperature {C}
  19.598,                                 !- April Deep Ground Temperature {C}
  20.002,                                 !- May Deep Ground Temperature {C}
  21.64,                                  !- June Deep Ground Temperature {C}
  22.225,                                 !- July Deep Ground Temperature {C}
  22.375,                                 !- August Deep Ground Temperature {C}
  21.449,                                 !- September Deep Ground Temperature {C}
  20.121,                                 !- October Deep Ground Temperature {C}
  19.802,                                 !- November Deep Ground Temperature {C}
  19.633;                                 !- December Deep Ground Temperature {C}

OS:Site:WaterMainsTemperature,
  {a97bdf09-5b3b-4b5c-a4f7-f7eb6558192c}, !- Handle
  Correlation,                            !- Calculation Method
  ,                                       !- Temperature Schedule Name
  9.69,                                   !- Annual Average Outdoor Air Temperature {C}
  28.1;                                   !- Maximum Difference In Monthly Average Outdoor Air Temperatures {deltaC}

OS:SizingPeriod:DesignDay,
  {15bf4574-a29f-47e1-a6a9-0392bc61f7ea}, !- Handle
  Sizing Period Design Day 1,             !- Name
  -20.6,                                  !- Maximum Dry-Bulb Temperature {C}
  0,                                      !- Daily Dry-Bulb Temperature Range {deltaC}
  -20.6,                                  !- Humidity Indicating Conditions at Maximum Dry-Bulb
  99063,                                  !- Barometric Pressure {Pa}
  4.9,                                    !- Wind Speed {m/s}
  270,                                    !- Wind Direction {deg}
  0,                                      !- Sky Clearness
  0,                                      !- Rain Indicator
  0,                                      !- Snow Indicator
  21,                                     !- Day of Month
  1,                                      !- Month
  WinterDesignDay,                        !- Day Type
  0,                                      !- Daylight Saving Time Indicator
  WetBulb,                                !- Humidity Indicating Type
  ,                                       !- Humidity Indicating Day Schedule Name
  DefaultMultipliers,                     !- Dry-Bulb Temperature Range Modifier Type
  ,                                       !- Dry-Bulb Temperature Range Modifier Schedule Name
  AshraeClearSky;                         !- Solar Model Indicator

OS:SizingPeriod:DesignDay,
  {23d7122d-235d-4e7c-862e-de34af480e90}, !- Handle
  Sizing Period Design Day 2,             !- Name
  33.2,                                   !- Maximum Dry-Bulb Temperature {C}
  10.7,                                   !- Daily Dry-Bulb Temperature Range {deltaC}
  23.8,                                   !- Humidity Indicating Conditions at Maximum Dry-Bulb
  99063,                                  !- Barometric Pressure {Pa}
  5.3,                                    !- Wind Speed {m/s}
  230,                                    !- Wind Direction {deg}
  1,                                      !- Sky Clearness
  0,                                      !- Rain Indicator
  0,                                      !- Snow Indicator
  21,                                     !- Day of Month
  7,                                      !- Month
  SummerDesignDay,                        !- Day Type
  0,                                      !- Daylight Saving Time Indicator
  WetBulb,                                !- Humidity Indicating Type
  ,                                       !- Humidity Indicating Day Schedule Name
  DefaultMultipliers,                     !- Dry-Bulb Temperature Range Modifier Type
  ,                                       !- Dry-Bulb Temperature Range Modifier Schedule Name
  AshraeClearSky;                         !- Solar Model Indicator

OS:ScheduleTypeLimits,
  {4cd0f049-4dc7-412c-aa18-2621c7d56b57}, !- Handle
  Temperature,                            !- Name
  -60,                                    !- Lower Limit Value
  200,                                    !- Upper Limit Value
  CONTINUOUS,                             !- Numeric Type
  Temperature;                            !- Unit Type

OS:DefaultScheduleSet,
  {23f567d1-ab26-4149-a76c-ad0719505680}, !- Handle
  Default Schedules,                      !- Name
  ,                                       !- Hours of Operation Schedule Name
  {13ed5344-90f7-4837-9f39-89de611b3cf8}, !- Number of People Schedule Name
  {d9d1564e-46b6-4b7f-9394-d3dbb6f3486c}, !- People Activity Level Schedule Name
  {090b1346-f9e2-4e52-b24c-25069d34b433}, !- Lighting Schedule Name
  {e3a56c92-9c13-46bb-b215-20e483a86b64}, !- Electric Equipment Schedule Name
  {4f2ce720-27fa-4723-b277-e5208905f1f7}, !- Gas Equipment Schedule Name
  {2de4c6c0-745f-4b91-9f58-e85d71688539}, !- Hot Water Equipment Schedule Name
  {75ba10ce-0391-4fef-8702-8633b7d9417d}, !- Infiltration Schedule Name
  ,                                       !- Steam Equipment Schedule Name
  ;                                       !- Other Equipment Schedule Name

OS:Schedule:Ruleset,
  {13ed5344-90f7-4837-9f39-89de611b3cf8}, !- Handle
  Medium Office Number of People Schedule, !- Name
  {9124c167-8190-4780-9774-fb1504ec3172}, !- Schedule Type Limits Name
  {a7ba1e37-dda2-4209-96f1-79d01385d15d}, !- Default Day Schedule Name
  {6119c074-9558-448d-8fc1-2f1bbb2573aa}; !- Summer Design Day Schedule Name

OS:Schedule:Day,
  {a7ba1e37-dda2-4209-96f1-79d01385d15d}, !- Handle
  Medium Office Number of People All Other Days Schedule, !- Name
  {9124c167-8190-4780-9774-fb1504ec3172}, !- Schedule Type Limits Name
  ,                                       !- Interpolate to Timestep
  24,                                     !- Hour 1
  0,                                      !- Minute 1
  0;                                      !- Value Until Time 1

OS:Schedule:Day,
  {848b8033-6b78-412c-b7ad-7f7881e7d1bd}, !- Handle
  Medium Office Number of People Summer Design Day Schedule, !- Name
  ,                                       !- Schedule Type Limits Name
  ,                                       !- Interpolate to Timestep
  6,                                      !- Hour 1
  0,                                      !- Minute 1
  0,                                      !- Value Until Time 1
  22,                                     !- Hour 2
  0,                                      !- Minute 2
  1,                                      !- Value Until Time 2
  24,                                     !- Hour 3
  0,                                      !- Minute 3
  0.05;                                   !- Value Until Time 3

OS:Schedule:Day,
  {6119c074-9558-448d-8fc1-2f1bbb2573aa}, !- Handle
  Medium Office Number of People Summer Design Day Schedule 1, !- Name
  {9124c167-8190-4780-9774-fb1504ec3172}, !- Schedule Type Limits Name
  ,                                       !- Interpolate to Timestep
  6,                                      !- Hour 1
  0,                                      !- Minute 1
  0,                                      !- Value Until Time 1
  22,                                     !- Hour 2
  0,                                      !- Minute 2
  1,                                      !- Value Until Time 2
  24,                                     !- Hour 3
  0,                                      !- Minute 3
  0.05;                                   !- Value Until Time 3

OS:Schedule:Rule,
  {f6efb8d6-9b0b-40db-a27a-671740db83d3}, !- Handle
  Medium Office Number of People Schedule Weekdays Rule, !- Name
  {13ed5344-90f7-4837-9f39-89de611b3cf8}, !- Schedule Ruleset Name
  1,                                      !- Rule Order
  {57cf6ac1-9014-4daf-a467-9d7d6299ce91}, !- Day Schedule Name
  ,                                       !- Apply Sunday
  Yes,                                    !- Apply Monday
  Yes,                                    !- Apply Tuesday
  Yes,                                    !- Apply Wednesday
  Yes,                                    !- Apply Thursday
  Yes;                                    !- Apply Friday

OS:Schedule:Day,
  {57cf6ac1-9014-4daf-a467-9d7d6299ce91}, !- Handle
  Medium Office Number of People Weekdays Schedule, !- Name
  {9124c167-8190-4780-9774-fb1504ec3172}, !- Schedule Type Limits Name
  ,                                       !- Interpolate to Timestep
  6,                                      !- Hour 1
  0,                                      !- Minute 1
  0,                                      !- Value Until Time 1
  7,                                      !- Hour 2
  0,                                      !- Minute 2
  0.1,                                    !- Value Until Time 2
  8,                                      !- Hour 3
  0,                                      !- Minute 3
  0.2,                                    !- Value Until Time 3
  12,                                     !- Hour 4
  0,                                      !- Minute 4
  0.95,                                   !- Value Until Time 4
  13,                                     !- Hour 5
  0,                                      !- Minute 5
  0.5,                                    !- Value Until Time 5
  17,                                     !- Hour 6
  0,                                      !- Minute 6
  0.95,                                   !- Value Until Time 6
  18,                                     !- Hour 7
  0,                                      !- Minute 7
  0.7,                                    !- Value Until Time 7
  20,                                     !- Hour 8
  0,                                      !- Minute 8
  0.4,                                    !- Value Until Time 8
  22,                                     !- Hour 9
  0,                                      !- Minute 9
  0.1,                                    !- Value Until Time 9
  24,                                     !- Hour 10
  0,                                      !- Minute 10
  0.05;                                   !- Value Until Time 10

OS:Schedule:Rule,
  {a92a5b12-6572-41f4-bd9a-bc64fe3b2c87}, !- Handle
  Medium Office Number of People Schedule Saturday Rule, !- Name
  {13ed5344-90f7-4837-9f39-89de611b3cf8}, !- Schedule Ruleset Name
  0,                                      !- Rule Order
  {9fad06a0-90dd-44ea-b839-dcd01350be92}, !- Day Schedule Name
  ,                                       !- Apply Sunday
  ,                                       !- Apply Monday
  ,                                       !- Apply Tuesday
  ,                                       !- Apply Wednesday
  ,                                       !- Apply Thursday
  ,                                       !- Apply Friday
  Yes;                                    !- Apply Saturday

OS:Schedule:Day,
  {9fad06a0-90dd-44ea-b839-dcd01350be92}, !- Handle
  Medium Office Number of People Saturday Schedule, !- Name
  {9124c167-8190-4780-9774-fb1504ec3172}, !- Schedule Type Limits Name
  ,                                       !- Interpolate to Timestep
  6,                                      !- Hour 1
  0,                                      !- Minute 1
  0,                                      !- Value Until Time 1
  8,                                      !- Hour 2
  0,                                      !- Minute 2
  0.1,                                    !- Value Until Time 2
  14,                                     !- Hour 3
  0,                                      !- Minute 3
  0.5,                                    !- Value Until Time 3
  17,                                     !- Hour 4
  0,                                      !- Minute 4
  0.1,                                    !- Value Until Time 4
  24,                                     !- Hour 5
  0,                                      !- Minute 5
  0;                                      !- Value Until Time 5

OS:ScheduleTypeLimits,
  {9124c167-8190-4780-9774-fb1504ec3172}, !- Handle
  Fractional,                             !- Name
  0,                                      !- Lower Limit Value
  1,                                      !- Upper Limit Value
  Continuous;                             !- Numeric Type

OS:Schedule:Ruleset,
  {d9d1564e-46b6-4b7f-9394-d3dbb6f3486c}, !- Handle
  Medium Office People Activity Level Schedule, !- Name
  {047c88bb-8b8b-4dfc-a408-66e382f977ba}, !- Schedule Type Limits Name
  {78b51391-5c02-4c4e-8b6c-120b32fff0d4}; !- Default Day Schedule Name

OS:Schedule:Day,
  {78b51391-5c02-4c4e-8b6c-120b32fff0d4}, !- Handle
  Medium Office People Activity Level All Days Schedule, !- Name
  {047c88bb-8b8b-4dfc-a408-66e382f977ba}, !- Schedule Type Limits Name
  ,                                       !- Interpolate to Timestep
  24,                                     !- Hour 1
  0,                                      !- Minute 1
  120;                                    !- Value Until Time 1

OS:ScheduleTypeLimits,
  {047c88bb-8b8b-4dfc-a408-66e382f977ba}, !- Handle
  ActivityLevel,                          !- Name
  0,                                      !- Lower Limit Value
  ,                                       !- Upper Limit Value
  Continuous,                             !- Numeric Type
  ActivityLevel;                          !- Unit Type

OS:Schedule:Ruleset,
  {090b1346-f9e2-4e52-b24c-25069d34b433}, !- Handle
  Medium Office Lighting Schedule,        !- Name
  {9124c167-8190-4780-9774-fb1504ec3172}, !- Schedule Type Limits Name
  {0f045770-6b73-49ff-8e56-7ddca528a03a}, !- Default Day Schedule Name
  {c98fddca-ff69-4bc6-a302-6b37119dc29a}, !- Summer Design Day Schedule Name
  {42122fc1-f4c2-4f25-8160-04b720ada99e}; !- Winter Design Day Schedule Name

OS:Schedule:Day,
  {0f045770-6b73-49ff-8e56-7ddca528a03a}, !- Handle
  Medium Office Lighting All Other Days Schedule, !- Name
  {9124c167-8190-4780-9774-fb1504ec3172}, !- Schedule Type Limits Name
  ,                                       !- Interpolate to Timestep
  24,                                     !- Hour 1
  0,                                      !- Minute 1
  0.05;                                   !- Value Until Time 1

OS:Schedule:Day,
  {0605178c-4d5c-4d04-b8f8-1bb7781b4ac9}, !- Handle
  Medium Office Lighting Summer Design Day Schedule, !- Name
  ,                                       !- Schedule Type Limits Name
  ,                                       !- Interpolate to Timestep
  6,                                      !- Hour 1
  0,                                      !- Minute 1
  1,                                      !- Value Until Time 1
  24,                                     !- Hour 2
  0,                                      !- Minute 2
  0;                                      !- Value Until Time 2

OS:Schedule:Day,
  {c98fddca-ff69-4bc6-a302-6b37119dc29a}, !- Handle
  Medium Office Lighting Summer Design Day Schedule 1, !- Name
  {9124c167-8190-4780-9774-fb1504ec3172}, !- Schedule Type Limits Name
  ,                                       !- Interpolate to Timestep
  6,                                      !- Hour 1
  0,                                      !- Minute 1
  1,                                      !- Value Until Time 1
  24,                                     !- Hour 2
  0,                                      !- Minute 2
  0;                                      !- Value Until Time 2

OS:Schedule:Day,
  {bdc649d8-7ec6-4ac0-bc19-67c5cf838472}, !- Handle
  Medium Office Lighting Winter Design Day Schedule, !- Name
  ,                                       !- Schedule Type Limits Name
  ,                                       !- Interpolate to Timestep
  24,                                     !- Hour 1
  0,                                      !- Minute 1
  0;                                      !- Value Until Time 1

OS:Schedule:Day,
  {42122fc1-f4c2-4f25-8160-04b720ada99e}, !- Handle
  Medium Office Lighting Winter Design Day Schedule 1, !- Name
  {9124c167-8190-4780-9774-fb1504ec3172}, !- Schedule Type Limits Name
  ,                                       !- Interpolate to Timestep
  24,                                     !- Hour 1
  0,                                      !- Minute 1
  0;                                      !- Value Until Time 1

OS:Schedule:Rule,
  {4594b3c4-5509-4640-a1a8-ae7e917371e4}, !- Handle
  Medium Office Lighting Schedule Weekdays Rule, !- Name
  {090b1346-f9e2-4e52-b24c-25069d34b433}, !- Schedule Ruleset Name
  1,                                      !- Rule Order
  {46055615-1947-404b-961c-5402f30bc270}, !- Day Schedule Name
  ,                                       !- Apply Sunday
  Yes,                                    !- Apply Monday
  Yes,                                    !- Apply Tuesday
  Yes,                                    !- Apply Wednesday
  Yes,                                    !- Apply Thursday
  Yes;                                    !- Apply Friday

OS:Schedule:Day,
  {46055615-1947-404b-961c-5402f30bc270}, !- Handle
  Medium Office Lighting Weekdays Schedule, !- Name
  {9124c167-8190-4780-9774-fb1504ec3172}, !- Schedule Type Limits Name
  ,                                       !- Interpolate to Timestep
  5,                                      !- Hour 1
  0,                                      !- Minute 1
  0.05,                                   !- Value Until Time 1
  7,                                      !- Hour 2
  0,                                      !- Minute 2
  0.1,                                    !- Value Until Time 2
  8,                                      !- Hour 3
  0,                                      !- Minute 3
  0.3,                                    !- Value Until Time 3
  17,                                     !- Hour 4
  0,                                      !- Minute 4
  0.9,                                    !- Value Until Time 4
  18,                                     !- Hour 5
  0,                                      !- Minute 5
  0.7,                                    !- Value Until Time 5
  20,                                     !- Hour 6
  0,                                      !- Minute 6
  0.5,                                    !- Value Until Time 6
  22,                                     !- Hour 7
  0,                                      !- Minute 7
  0.3,                                    !- Value Until Time 7
  23,                                     !- Hour 8
  0,                                      !- Minute 8
  0.1,                                    !- Value Until Time 8
  24,                                     !- Hour 9
  0,                                      !- Minute 9
  0.05;                                   !- Value Until Time 9

OS:Schedule:Rule,
  {6b8ac0d7-2509-4f0d-afb8-18c8f1b6569b}, !- Handle
  Medium Office Lighting Schedule Saturday Rule, !- Name
  {090b1346-f9e2-4e52-b24c-25069d34b433}, !- Schedule Ruleset Name
  0,                                      !- Rule Order
  {ec9440c9-5759-44e2-a0e1-3808d53b033c}, !- Day Schedule Name
  ,                                       !- Apply Sunday
  ,                                       !- Apply Monday
  ,                                       !- Apply Tuesday
  ,                                       !- Apply Wednesday
  ,                                       !- Apply Thursday
  ,                                       !- Apply Friday
  Yes;                                    !- Apply Saturday

OS:Schedule:Day,
  {ec9440c9-5759-44e2-a0e1-3808d53b033c}, !- Handle
  Medium Office Lighting Saturday Schedule, !- Name
  {9124c167-8190-4780-9774-fb1504ec3172}, !- Schedule Type Limits Name
  ,                                       !- Interpolate to Timestep
  6,                                      !- Hour 1
  0,                                      !- Minute 1
  0.05,                                   !- Value Until Time 1
  8,                                      !- Hour 2
  0,                                      !- Minute 2
  0.1,                                    !- Value Until Time 2
  14,                                     !- Hour 3
  0,                                      !- Minute 3
  0.5,                                    !- Value Until Time 3
  17,                                     !- Hour 4
  0,                                      !- Minute 4
  0.15,                                   !- Value Until Time 4
  24,                                     !- Hour 5
  0,                                      !- Minute 5
  0.05;                                   !- Value Until Time 5

OS:Schedule:Ruleset,
  {e3a56c92-9c13-46bb-b215-20e483a86b64}, !- Handle
  Medium Office Electric Equipment Schedule, !- Name
  {9124c167-8190-4780-9774-fb1504ec3172}, !- Schedule Type Limits Name
  {c3136026-6163-4771-a960-aa9e123431f3}, !- Default Day Schedule Name
  {e4ec508d-00ce-41cd-a74d-fa84b064de8b}, !- Summer Design Day Schedule Name
  {6f660ffa-7aaa-459f-8881-b5f20c3b2e70}; !- Winter Design Day Schedule Name

OS:Schedule:Day,
  {c3136026-6163-4771-a960-aa9e123431f3}, !- Handle
  Medium Office Electric Equipment All Other Days Schedule, !- Name
  {9124c167-8190-4780-9774-fb1504ec3172}, !- Schedule Type Limits Name
  ,                                       !- Interpolate to Timestep
  24,                                     !- Hour 1
  0,                                      !- Minute 1
  0.3;                                    !- Value Until Time 1

OS:Schedule:Day,
  {4668fe10-3ee6-49ba-af71-b0c2d0e682a0}, !- Handle
  Medium Office Electric Equipment Summer Design Day Schedule, !- Name
  ,                                       !- Schedule Type Limits Name
  ,                                       !- Interpolate to Timestep
  6,                                      !- Hour 1
  0,                                      !- Minute 1
  1,                                      !- Value Until Time 1
  24,                                     !- Hour 2
  0,                                      !- Minute 2
  0;                                      !- Value Until Time 2

OS:Schedule:Day,
  {e4ec508d-00ce-41cd-a74d-fa84b064de8b}, !- Handle
  Medium Office Electric Equipment Summer Design Day Schedule 1, !- Name
  {9124c167-8190-4780-9774-fb1504ec3172}, !- Schedule Type Limits Name
  ,                                       !- Interpolate to Timestep
  6,                                      !- Hour 1
  0,                                      !- Minute 1
  1,                                      !- Value Until Time 1
  24,                                     !- Hour 2
  0,                                      !- Minute 2
  0;                                      !- Value Until Time 2

OS:Schedule:Day,
  {1df06074-1095-4f7c-a1af-302976cbecc8}, !- Handle
  Medium Office Electric Equipment Winter Design Day Schedule, !- Name
  ,                                       !- Schedule Type Limits Name
  ,                                       !- Interpolate to Timestep
  24,                                     !- Hour 1
  0,                                      !- Minute 1
  0;                                      !- Value Until Time 1

OS:Schedule:Day,
  {6f660ffa-7aaa-459f-8881-b5f20c3b2e70}, !- Handle
  Medium Office Electric Equipment Winter Design Day Schedule 1, !- Name
  {9124c167-8190-4780-9774-fb1504ec3172}, !- Schedule Type Limits Name
  ,                                       !- Interpolate to Timestep
  24,                                     !- Hour 1
  0,                                      !- Minute 1
  0;                                      !- Value Until Time 1

OS:Schedule:Rule,
  {80d15f19-2f69-406c-b3a4-43c577d1c7e2}, !- Handle
  Medium Office Electric Equipment Schedule Weekdays Rule, !- Name
  {e3a56c92-9c13-46bb-b215-20e483a86b64}, !- Schedule Ruleset Name
  1,                                      !- Rule Order
  {9cbd1df8-1cf9-4402-933f-0f139d65c796}, !- Day Schedule Name
  ,                                       !- Apply Sunday
  Yes,                                    !- Apply Monday
  Yes,                                    !- Apply Tuesday
  Yes,                                    !- Apply Wednesday
  Yes,                                    !- Apply Thursday
  Yes;                                    !- Apply Friday

OS:Schedule:Day,
  {9cbd1df8-1cf9-4402-933f-0f139d65c796}, !- Handle
  Medium Office Electric Equipment Weekdays Schedule, !- Name
  {9124c167-8190-4780-9774-fb1504ec3172}, !- Schedule Type Limits Name
  ,                                       !- Interpolate to Timestep
  8,                                      !- Hour 1
  0,                                      !- Minute 1
  0.4,                                    !- Value Until Time 1
  12,                                     !- Hour 2
  0,                                      !- Minute 2
  0.9,                                    !- Value Until Time 2
  13,                                     !- Hour 3
  0,                                      !- Minute 3
  0.8,                                    !- Value Until Time 3
  17,                                     !- Hour 4
  0,                                      !- Minute 4
  0.9,                                    !- Value Until Time 4
  18,                                     !- Hour 5
  0,                                      !- Minute 5
  0.8,                                    !- Value Until Time 5
  20,                                     !- Hour 6