
OS:Version,
  {bea3301c-6d17-44cf-a2c9-2922ba395c1d}, !- Handle
  1.4.0;                                  !- Version Identifier

OS:ClimateZones,
  {60ec2a92-9103-49fc-9784-739d20a39abb}, !- Handle
  ,                                       !- Active Institution
  ,                                       !- Active Year
  ASHRAE,                                 !- Climate Zone Institution Name 1
  ANSI/ASHRAE Standard 169,               !- Climate Zone Document Name 1
  2006,                                   !- Climate Zone Document Year 1
  ,                                       !- Climate Zone Value 1
  CEC,                                    !- Climate Zone Institution Name 2
  California Climate Zone Descriptions,   !- Climate Zone Document Name 2
  1995,                                   !- Climate Zone Document Year 2
  ;                                       !- Climate Zone Value 2

OS:LifeCycleCost:Parameters,
  {254f2d2d-54c0-412c-b4ea-6fb6a6f65e20}, !- Handle
  FEMP,                                   !- Analysis Type
  ,                                       !- Discounting Convention
  ,                                       !- Inflation Approach
  ,                                       !- Real Discount Rate
  ,                                       !- Nominal Discount Rate
  ,                                       !- Inflation
  ,                                       !- Base Date Month
  ,                                       !- Base Date Year
  ,                                       !- Service Date Month
  ,                                       !- Service Date Year
  ,                                       !- Length of Study Period in Years
  ,                                       !- Tax Rate
  ,                                       !- Depreciation Method
  Yes;                                    !- Use NIST Fuel Escalation Rates

OS:YearDescription,
  {3bc2bf74-04d4-4503-9c20-9c24f049d0c8}; !- Handle

OS:RadianceParameters,
  {15fdc7ff-aef6-4306-9ff1-14321526fee3}, !- Handle
  1,                                      !- Accumulated Rays per Record
  0,                                      !- Direct Threshold
  1,                                      !- Direct Certainty
  1,                                      !- Direct Jitter
  1,                                      !- Direct Pretest
  6,                                      !- Ambient Bounces VMX
  2,                                      !- Ambient Bounces DMX
  4050,                                   !- Ambient Divisions VMX
  512,                                    !- Ambient Divisions DMX
  256,                                    !- Ambient Supersamples
  0.001,                                  !- Limit Weight VMX
  0.001,                                  !- Limit Weight DMX
  500,                                    !- Klems Sampling Density
  146;                                    !- Sky Discretization Resolution

OS:SimulationControl,
  {5275c253-1000-4c56-b8c5-286a4a56d03a}; !- Handle

OS:Sizing:Parameters,
  {27d7f351-455a-4995-af94-1bff5a128323}, !- Handle
  1.25,                                   !- Heating Sizing Factor
  1.15;                                   !- Cooling Sizing Factor

OS:ProgramControl,
  {0767064e-d346-405c-86bb-c9adb5c21329}; !- Handle

OS:Timestep,
  {8d99dc28-2a9b-4458-abdb-940c0fbefe2c}, !- Handle
  6;                                      !- Number of Timesteps per Hour

OS:OutputControl:ReportingTolerances,
  {b56f6d54-ff44-4898-a1b7-f941ec1d5673}; !- Handle

OS:ConvergenceLimits,
  {8a79b098-483a-4f4c-992e-2ad238f8a8da}; !- Handle

OS:ShadowCalculation,
  {cf32526e-eaef-46a5-95ca-ac157e6f758c}, !- Handle
  7,                                      !- Calculation Frequency
  15000;                                  !- Maximum Figures in Shadow Overlap Calculations

OS:SurfaceConvectionAlgorithm:Inside,
  {c31468ff-5e6c-420d-97f2-41b83d94b9da}, !- Handle
  TARP;                                   !- Algorithm

OS:SurfaceConvectionAlgorithm:Outside,
  {504d2270-40de-42ef-8006-befd1feea609}, !- Handle
  DOE-2;                                  !- Algorithm

OS:HeatBalanceAlgorithm,
  {ccebceb7-655c-4f4c-8eb5-88a6bff7d4a3}, !- Handle
  ConductionTransferFunction,             !- Algorithm
  200;                                    !- Surface Temperature Upper Limit {F}

OS:ZoneAirHeatBalanceAlgorithm,
  {7411418d-afc7-4318-963d-84ac2d8abefe}, !- Handle
  AnalyticalSolution;                     !- Algorithm

OS:ZoneAirContaminantBalance,
  {f875619d-a350-48c9-ba0e-9327733e8672}; !- Handle

OS:ZoneCapacitanceMultiplier:ResearchSpecial,
  {ead70a51-99af-45a8-ad5b-d40900204518}, !- Handle
  ,                                       !- Temperature Capacity Multiplier
  ,                                       !- Humidity Capacity Multiplier
  ;                                       !- Carbon Dioxide Capacity Multiplier

OS:RunPeriod,
  {94f2ca2c-dcb6-418c-934c-afc90c2974f0}, !- Handle
  Run Period 1,                           !- Name
  1,                                      !- Begin Month
  1,                                      !- Begin Day of Month
  12,                                     !- End Month
  31,                                     !- End Day of Month
  ,                                       !- Use Weather File Holidays and Special Days
  ,                                       !- Use Weather File Daylight Saving Period
  ,                                       !- Apply Weekend Holiday Rule
  ,                                       !- Use Weather File Rain Indicators
  ,                                       !- Use Weather File Snow Indicators
  ;                                       !- Number of Times Runperiod to be Repeated

OS:Building,
  {db34228f-05de-40ba-968a-8ddfee6b900a}, !- Handle
  Building 1,                             !- Name
  ,                                       !- Building Sector Type
  ,                                       !- North Axis {deg}
  ,                                       !- Nominal Floor to Floor Height {m}
  ,                                       !- Space Type Name
  ,                                       !- Default Construction Set Name
  ;                                       !- Default Schedule Set Name

OS:Facility,
  {3356c9e5-8701-4680-989a-63356ce12df1}; !- Handle

OS:Space,
  {df1fc4e5-33b5-465c-8a70-8fd99030e822}, !- Handle
  Hello_World test space;                 !- Name

