
OS:Version,
  {d9950636-672a-4eaf-b111-369c97a4fca5}, !- Handle
  3.7.0;                                  !- Version Identifier

OS:SimulationControl,
  {dffa50c3-0af9-4bc0-b251-5ed123f525fa}, !- Handle
  Yes,                                    !- Do Zone Sizing Calculation
  Yes,                                    !- Do System Sizing Calculation
  ,                                       !- Do Plant Sizing Calculation
  No,                                     !- Run Simulation for Sizing Periods
  Yes;                                    !- Run Simulation for Weather File Run Periods

OS:Timestep,
  {0ec1461b-63d0-4b9b-90e7-56fe129c580e}, !- Handle
  6;                                      !- Number of Timesteps per Hour

OS:RunPeriod,
  {36dac0ef-81e6-4b6c-92cd-8d9027316b77}, !- Handle
  Run Period 1,                           !- Name
  1,                                      !- Begin Month
  1,                                      !- Begin Day of Month
  12,                                     !- End Month
  31,                                     !- End Day of Month
  No,                                     !- Use Weather File Holidays and Special Days
  No,                                     !- Use Weather File Daylight Saving Period
  No,                                     !- Apply Weekend Holiday Rule
  Yes,                                    !- Use Weather File Rain Indicators
  Yes,                                    !- Use Weather File Snow Indicators
  1;                                      !- Number of Times Runperiod to be Repeated

OS:SurfaceConvectionAlgorithm:Inside,
  {fe2100c3-bfa6-4a80-af5c-abfc6461200b}, !- Handle
  TARP;                                   !- Algorithm

OS:SurfaceConvectionAlgorithm:Outside,
  {e621b055-42dd-44c6-8c22-2ccf8bf49c16}, !- Handle
  DOE-2;                                  !- Algorithm

OS:HeatBalanceAlgorithm,
  {d23315d3-61d0-4fab-a825-40c070353a42}, !- Handle
  ConductionTransferFunction,             !- Algorithm
  200;                                    !- Surface Temperature Upper Limit {C}

OS:ZoneAirHeatBalanceAlgorithm,
  {07a72355-ad61-4de2-b592-a38ace84a25f}, !- Handle
  ,                                       !- Algorithm
  ,                                       !- Do Space Heat Balance for Sizing
  ;                                       !- Do Space Heat Balance for Simulation

OS:ConvergenceLimits,
  {5471f964-ca0f-48b3-bf3c-eea264418014}, !- Handle
  1;                                      !- Minimum System Timestep {minutes}

OS:ShadowCalculation,
  {b1d83880-ea84-49a7-b5c3-ce9c9defbdaf}, !- Handle
  PolygonClipping,                        !- Shading Calculation Method
  ,                                       !- Shading Calculation Update Frequency Method
  20,                                     !- Shading Calculation Update Frequency
  15000,                                  !- Maximum Figures in Shadow Overlap Calculations
  ,                                       !- Polygon Clipping Algorithm
  512,                                    !- Pixel Counting Resolution
  ,                                       !- Sky Diffuse Modeling Algorithm
  No,                                     !- Output External Shading Calculation Results
  No,                                     !- Disable Self-Shading Within Shading Zone Groups
  No;                                     !- Disable Self-Shading From Shading Zone Groups to Other Zones

OS:Site,
  {157c726c-266b-4a5c-b2b1-bb044e7c89ae}, !- Handle
  Site 1,                                 !- Name
  41.77,                                  !- Latitude {deg}
  -87.75,                                 !- Longitude {deg}
  -6,                                     !- Time Zone {hr}
  190,                                    !- Elevation {m}
  ;                                       !- Terrain

OS:Site:GroundTemperature:BuildingSurface,
  {0bd7ad4b-32f3-4895-b594-e3a282e7926e}, !- Handle
  19.527,                                 !- January Ground Temperature {C}
  19.502,                                 !- February Ground Temperature {C}
  19.536,                                 !- March Ground Temperature {C}
  19.598,                                 !- April Ground Temperature {C}
  20.002,                                 !- May Ground Temperature {C}
  21.64,                                  !- June Ground Temperature {C}
  22.225,                                 !- July Ground Temperature {C}
  22.375,                                 !- August Ground Temperature {C}
  21.449,                                 !- September Ground Temperature {C}
  20.121,                                 !- October Ground Temperature {C}
  19.802,                                 !- November Ground Temperature {C}
  19.633;                                 !- December Ground Temperature {C}

OS:Site:GroundTemperature:Deep,
  {96e6e8b7-166a-45de-af71-11be032c1377}, !- Handle
  19.527,                                 !- January Deep Ground Temperature {C}
  19.502,                                 !- February Deep Ground Temperature {C}
  19.536,                                 !- March Deep Ground Temperature {C}
  19.598,                                 !- April Deep Ground Temperature {C}
  20.002,                                 !- May Deep Ground Temperature {C}
  21.64,                                  !- June Deep Ground Temperature {C}
  22.225,                                 !- July Deep Ground Temperature {C}
  22.375,                                 !- August Deep Ground Temperature {C}
  21.449,                                 !- September Deep Ground Temperature {C}
  20.121,                                 !- October Deep Ground Temperature {C}
  19.802,                                 !- November Deep Ground Temperature {C}
  19.633;                                 !- December Deep Ground Temperature {C}

OS:Site:WaterMainsTemperature,
  {09a5d992-984e-4eb0-9bc3-8b81708d052f}, !- Handle
  Correlation,                            !- Calculation Method
  ,                                       !- Temperature Schedule Name
  9.69,                                   !- Annual Average Outdoor Air Temperature {C}
  28.1;                                   !- Maximum Difference In Monthly Average Outdoor Air Temperatures {deltaC}

OS:SizingPeriod:DesignDay,
  {93d19a28-1684-4399-9d02-a9c4bbecb075}, !- Handle
  Sizing Period Design Day 1,             !- Name
  -20.6,                                  !- Maximum Dry-Bulb Temperature {C}
  0,                                      !- Daily Dry-Bulb Temperature Range {deltaC}
  99063,                                  !- Barometric Pressure {Pa}
  4.9,                                    !- Wind Speed {m/s}
  270,                                    !- Wind Direction {deg}
  0,                                      !- Sky Clearness
  No,                                     !- Rain Indicator
  No,                                     !- Snow Indicator
  21,                                     !- Day of Month
  1,                                      !- Month
  WinterDesignDay,                        !- Day Type
  No,                                     !- Daylight Saving Time Indicator
  WetBulb,                                !- Humidity Condition Type
  ,                                       !- Humidity Condition Day Schedule Name
  -20.6,                                  !- Wetbulb or DewPoint at Maximum Dry-Bulb {C}
  ,                                       !- Humidity Ratio at Maximum Dry-Bulb {kgWater/kgDryAir}
  ,                                       !- Enthalpy at Maximum Dry-Bulb {J/kg}
  ;                                       !- Dry-Bulb Temperature Range Modifier Type

OS:SizingPeriod:DesignDay,
  {a778c9f1-3848-4886-bb43-0bf89d2d6051}, !- Handle
  Sizing Period Design Day 2,             !- Name
  33.2,                                   !- Maximum Dry-Bulb Temperature {C}
  10.7,                                   !- Daily Dry-Bulb Temperature Range {deltaC}
  99063,                                  !- Barometric Pressure {Pa}
  5.3,                                    !- Wind Speed {m/s}
  230,                                    !- Wind Direction {deg}
  1,                                      !- Sky Clearness
  No,                                     !- Rain Indicator
  No,                                     !- Snow Indicator
  21,                                     !- Day of Month
  7,                                      !- Month
  SummerDesignDay,                        !- Day Type
  No,                                     !- Daylight Saving Time Indicator
  WetBulb,                                !- Humidity Condition Type
  ,                                       !- Humidity Condition Day Schedule Name
  23.8,                                   !- Wetbulb or DewPoint at Maximum Dry-Bulb {C}
  ,                                       !- Humidity Ratio at Maximum Dry-Bulb {kgWater/kgDryAir}
  ,                                       !- Enthalpy at Maximum Dry-Bulb {J/kg}
  ;                                       !- Dry-Bulb Temperature Range Modifier Type

OS:ScheduleTypeLimits,
  {0cdecaef-a5c3-4880-8f94-24a886f49630}, !- Handle
  Temperature,                            !- Name
  -60,                                    !- Lower Limit Value
  200,                                    !- Upper Limit Value
  CONTINUOUS,                             !- Numeric Type
  Temperature;                            !- Unit Type

OS:DefaultScheduleSet,
  {3632c462-98a9-4f32-ad9e-deca443535d4}, !- Handle
  Default Schedules,                      !- Name
  ,                                       !- Hours of Operation Schedule Name
  {43c90e98-fa06-4bef-8975-6faabcf60384}, !- Number of People Schedule Name
  {7b6d5bff-1be1-4d43-b9b8-9518767035d5}, !- People Activity Level Schedule Name
  {8528f1bc-c9e6-49d8-ad66-74b1ef7c136d}, !- Lighting Schedule Name
  {e9dd2f6a-3c0a-4099-ac84-ea4f893fc1f3}, !- Electric Equipment Schedule Name
  {2b628ca6-4658-45f1-80d7-da6b76d0ea52}, !- Gas Equipment Schedule Name
  {653e4221-dbb9-4748-a0e2-f88750344157}, !- Hot Water Equipment Schedule Name
  {9b000b2a-8ec1-4ee6-87ce-401edc774146}, !- Infiltration Schedule Name
  ,                                       !- Steam Equipment Schedule Name
  ;                                       !- Other Equipment Schedule Name

OS:Schedule:Ruleset,
  {43c90e98-fa06-4bef-8975-6faabcf60384}, !- Handle
  Medium Office Number of People Schedule, !- Name
  {9e4ca21d-f72e-4f78-9fb7-d7a1104ac3b7}, !- Schedule Type Limits Name
  {37e9edc8-39dd-4d24-a785-aa97976673fb}, !- Default Day Schedule Name
  {4a02fc9b-0d8a-4c71-a88e-309127e40e86}; !- Summer Design Day Schedule Name

OS:Schedule:Day,
  {37e9edc8-39dd-4d24-a785-aa97976673fb}, !- Handle
  Medium Office Number of People All Other Days Schedule, !- Name
  {9e4ca21d-f72e-4f78-9fb7-d7a1104ac3b7}, !- Schedule Type Limits Name
  ,                                       !- Interpolate to Timestep
  24,                                     !- Hour 1
  0,                                      !- Minute 1
  0;                                      !- Value Until Time 1

OS:Schedule:Day,
  {1a86b7f4-ca7a-4529-9e7e-edd894068ef4}, !- Handle
  Medium Office Number of People Summer Design Day Schedule, !- Name
  ,                                       !- Schedule Type Limits Name
  ,                                       !- Interpolate to Timestep
  6,                                      !- Hour 1
  0,                                      !- Minute 1
  0,                                      !- Value Until Time 1
  22,                                     !- Hour 2
  0,                                      !- Minute 2
  1,                                      !- Value Until Time 2
  24,                                     !- Hour 3
  0,                                      !- Minute 3
  0.05;                                   !- Value Until Time 3

OS:Schedule:Day,
  {4a02fc9b-0d8a-4c71-a88e-309127e40e86}, !- Handle
  Medium Office Number of People Summer Design Day Schedule 1, !- Name
  {9e4ca21d-f72e-4f78-9fb7-d7a1104ac3b7}, !- Schedule Type Limits Name
  ,                                       !- Interpolate to Timestep
  6,                                      !- Hour 1
  0,                                      !- Minute 1
  0,                                      !- Value Until Time 1
  22,                                     !- Hour 2
  0,                                      !- Minute 2
  1,                                      !- Value Until Time 2
  24,                                     !- Hour 3
  0,                                      !- Minute 3
  0.05;                                   !- Value Until Time 3

OS:Schedule:Rule,
  {04079301-125b-4b8f-80cb-4a8cb465afe9}, !- Handle
  Medium Office Number of People Schedule Weekdays Rule, !- Name
  {43c90e98-fa06-4bef-8975-6faabcf60384}, !- Schedule Ruleset Name
  1,                                      !- Rule Order
  {c7c66047-9ed8-437a-9b80-3a5fd3c94286}, !- Day Schedule Name
  ,                                       !- Apply Sunday
  Yes,                                    !- Apply Monday
  Yes,                                    !- Apply Tuesday
  Yes,                                    !- Apply Wednesday
  Yes,                                    !- Apply Thursday
  Yes;                                    !- Apply Friday

OS:Schedule:Day,
  {c7c66047-9ed8-437a-9b80-3a5fd3c94286}, !- Handle
  Medium Office Number of People Weekdays Schedule, !- Name
  {9e4ca21d-f72e-4f78-9fb7-d7a1104ac3b7}, !- Schedule Type Limits Name
  ,                                       !- Interpolate to Timestep
  6,                                      !- Hour 1
  0,                                      !- Minute 1
  0,                                      !- Value Until Time 1
  7,                                      !- Hour 2
  0,                                      !- Minute 2
  0.1,                                    !- Value Until Time 2
  8,                                      !- Hour 3
  0,                                      !- Minute 3
  0.2,                                    !- Value Until Time 3
  12,                                     !- Hour 4
  0,                                      !- Minute 4
  0.95,                                   !- Value Until Time 4
  13,                                     !- Hour 5
  0,                                      !- Minute 5
  0.5,                                    !- Value Until Time 5
  17,                                     !- Hour 6
  0,                                      !- Minute 6
  0.95,                                   !- Value Until Time 6
  18,                                     !- Hour 7
  0,                                      !- Minute 7
  0.7,                                    !- Value Until Time 7
  20,                                     !- Hour 8
  0,                                      !- Minute 8
  0.4,                                    !- Value Until Time 8
  22,                                     !- Hour 9
  0,                                      !- Minute 9
  0.1,                                    !- Value Until Time 9
  24,                                     !- Hour 10
  0,                                      !- Minute 10
  0.05;                                   !- Value Until Time 10

OS:Schedule:Rule,
  {59e39865-06d6-4152-9a2b-89638366dc4c}, !- Handle
  Medium Office Number of People Schedule Saturday Rule, !- Name
  {43c90e98-fa06-4bef-8975-6faabcf60384}, !- Schedule Ruleset Name
  0,                                      !- Rule Order
  {061f57e8-0795-4b0b-8408-673d3402cc59}, !- Day Schedule Name
  ,                                       !- Apply Sunday
  ,                                       !- Apply Monday
  ,                                       !- Apply Tuesday
  ,                                       !- Apply Wednesday
  ,                                       !- Apply Thursday
  ,                                       !- Apply Friday
  Yes;                                    !- Apply Saturday

OS:Schedule:Day,
  {061f57e8-0795-4b0b-8408-673d3402cc59}, !- Handle
  Medium Office Number of People Saturday Schedule, !- Name
  {9e4ca21d-f72e-4f78-9fb7-d7a1104ac3b7}, !- Schedule Type Limits Name
  ,                                       !- Interpolate to Timestep
  6,                                      !- Hour 1
  0,                                      !- Minute 1
  0,                                      !- Value Until Time 1
  8,                                      !- Hour 2
  0,                                      !- Minute 2
  0.1,                                    !- Value Until Time 2
  14,                                     !- Hour 3
  0,                                      !- Minute 3
  0.5,                                    !- Value Until Time 3
  17,                                     !- Hour 4
  0,                                      !- Minute 4
  0.1,                                    !- Value Until Time 4
  24,                                     !- Hour 5
  0,                                      !- Minute 5
  0;                                      !- Value Until Time 5

OS:ScheduleTypeLimits,
  {9e4ca21d-f72e-4f78-9fb7-d7a1104ac3b7}, !- Handle
  Fractional,                             !- Name
  0,                                      !- Lower Limit Value
  1,                                      !- Upper Limit Value
  Continuous;                             !- Numeric Type

OS:Schedule:Ruleset,
  {7b6d5bff-1be1-4d43-b9b8-9518767035d5}, !- Handle
  Medium Office People Activity Level Schedule, !- Name
  {10af91b7-b61c-4f4b-85cd-8f8820d9155e}, !- Schedule Type Limits Name
  {4619287c-ba18-4bcd-a423-56a077bcd23e}; !- Default Day Schedule Name

OS:Schedule:Day,
  {4619287c-ba18-4bcd-a423-56a077bcd23e}, !- Handle
  Medium Office People Activity Level All Days Schedule, !- Name
  {10af91b7-b61c-4f4b-85cd-8f8820d9155e}, !- Schedule Type Limits Name
  ,                                       !- Interpolate to Timestep
  24,                                     !- Hour 1
  0,                                      !- Minute 1
  120;                                    !- Value Until Time 1

OS:ScheduleTypeLimits,
  {10af91b7-b61c-4f4b-85cd-8f8820d9155e}, !- Handle
  ActivityLevel,                          !- Name
  0,                                      !- Lower Limit Value
  ,                                       !- Upper Limit Value
  Continuous,                             !- Numeric Type
  ActivityLevel;                          !- Unit Type

OS:Schedule:Ruleset,
  {8528f1bc-c9e6-49d8-ad66-74b1ef7c136d}, !- Handle
  Medium Office Lighting Schedule,        !- Name
  {9e4ca21d-f72e-4f78-9fb7-d7a1104ac3b7}, !- Schedule Type Limits Name
  {b1c9ea37-a4d9-45e3-8ad2-28100afa500b}, !- Default Day Schedule Name
  {0d2bb870-53b0-4e0c-8c98-6090f8af4d13}, !- Summer Design Day Schedule Name
  {e6c5109c-4d6c-4d15-8ca8-b76c7444d13f}; !- Winter Design Day Schedule Name

OS:Schedule:Day,
  {b1c9ea37-a4d9-45e3-8ad2-28100afa500b}, !- Handle
  Medium Office Lighting All Other Days Schedule, !- Name
  {9e4ca21d-f72e-4f78-9fb7-d7a1104ac3b7}, !- Schedule Type Limits Name
  ,                                       !- Interpolate to Timestep
  24,                                     !- Hour 1
  0,                                      !- Minute 1
  0.05;                                   !- Value Until Time 1

OS:Schedule:Day,
  {37492eaa-1fc5-42e9-b678-9cdcee33ccf1}, !- Handle
  Medium Office Lighting Summer Design Day Schedule, !- Name
  ,                                       !- Schedule Type Limits Name
  ,                                       !- Interpolate to Timestep
  6,                                      !- Hour 1
  0,                                      !- Minute 1
  1,                                      !- Value Until Time 1
  24,                                     !- Hour 2
  0,                                      !- Minute 2
  0;                                      !- Value Until Time 2

OS:Schedule:Day,
  {0d2bb870-53b0-4e0c-8c98-6090f8af4d13}, !- Handle
  Medium Office Lighting Summer Design Day Schedule 1, !- Name
  {9e4ca21d-f72e-4f78-9fb7-d7a1104ac3b7}, !- Schedule Type Limits Name
  ,                                       !- Interpolate to Timestep
  6,                                      !- Hour 1
  0,                                      !- Minute 1
  1,                                      !- Value Until Time 1
  24,                                     !- Hour 2
  0,                                      !- Minute 2
  0;                                      !- Value Until Time 2

OS:Schedule:Day,
  {8d617966-d6e8-4639-a05f-d0cb931cd23e}, !- Handle
  Medium Office Lighting Winter Design Day Schedule, !- Name
  ,                                       !- Schedule Type Limits Name
  ,                                       !- Interpolate to Timestep
  24,                                     !- Hour 1
  0,                                      !- Minute 1
  0;                                      !- Value Until Time 1

OS:Schedule:Day,
  {e6c5109c-4d6c-4d15-8ca8-b76c7444d13f}, !- Handle
  Medium Office Lighting Winter Design Day Schedule 1, !- Name
  {9e4ca21d-f72e-4f78-9fb7-d7a1104ac3b7}, !- Schedule Type Limits Name
  ,                                       !- Interpolate to Timestep
  24,                                     !- Hour 1
  0,                                      !- Minute 1
  0;                                      !- Value Until Time 1

OS:Schedule:Rule,
  {9b2a2b39-33ad-4ede-a239-bea30080b3f4}, !- Handle
  Medium Office Lighting Schedule Weekdays Rule, !- Name
  {8528f1bc-c9e6-49d8-ad66-74b1ef7c136d}, !- Schedule Ruleset Name
  1,                                      !- Rule Order
  {8c6b52ee-7bdf-4d70-8c1c-23e016e5d8fa}, !- Day Schedule Name
  ,                                       !- Apply Sunday
  Yes,                                    !- Apply Monday
  Yes,                                    !- Apply Tuesday
  Yes,                                    !- Apply Wednesday
  Yes,                                    !- Apply Thursday
  Yes;                                    !- Apply Friday

OS:Schedule:Day,
  {8c6b52ee-7bdf-4d70-8c1c-23e016e5d8fa}, !- Handle
  Medium Office Lighting Weekdays Schedule, !- Name
  {9e4ca21d-f72e-4f78-9fb7-d7a1104ac3b7}, !- Schedule Type Limits Name
  ,                                       !- Interpolate to Timestep
  5,                                      !- Hour 1
  0,                                      !- Minute 1
  0.05,                                   !- Value Until Time 1
  7,                                      !- Hour 2
  0,                                      !- Minute 2
  0.1,                                    !- Value Until Time 2
  8,                                      !- Hour 3
  0,                                      !- Minute 3
  0.3,                                    !- Value Until Time 3
  17,                                     !- Hour 4
  0,                                      !- Minute 4
  0.9,                                    !- Value Until Time 4
  18,                                     !- Hour 5
  0,                                      !- Minute 5
  0.7,                                    !- Value Until Time 5
  20,                                     !- Hour 6
  0,                                      !- Minute 6
  0.5,                                    !- Value Until Time 6
  22,                                     !- Hour 7
  0,                                      !- Minute 7
  0.3,                                    !- Value Until Time 7
  23,                                     !- Hour 8
  0,                                      !- Minute 8
  0.1,                                    !- Value Until Time 8
  24,                                     !- Hour 9
  0,                                      !- Minute 9
  0.05;                                   !- Value Until Time 9

OS:Schedule:Rule,
  {d7ff465a-a287-4816-a506-ece1ad2d60ac}, !- Handle
  Medium Office Lighting Schedule Saturday Rule, !- Name
  {8528f1bc-c9e6-49d8-ad66-74b1ef7c136d}, !- Schedule Ruleset Name
  0,                                      !- Rule Order
  {1fd0e438-42d6-4613-86c5-2eb0da0bf2a8}, !- Day Schedule Name
  ,                                       !- Apply Sunday
  ,                                       !- Apply Monday
  ,                                       !- Apply Tuesday
  ,                                       !- Apply Wednesday
  ,                                       !- Apply Thursday
  ,                                       !- Apply Friday
  Yes;                                    !- Apply Saturday

OS:Schedule:Day,
  {1fd0e438-42d6-4613-86c5-2eb0da0bf2a8}, !- Handle
  Medium Office Lighting Saturday Schedule, !- Name
  {9e4ca21d-f72e-4f78-9fb7-d7a1104ac3b7}, !- Schedule Type Limits Name
  ,                                       !- Interpolate to Timestep
  6,                                      !- Hour 1
  0,                                      !- Minute 1
  0.05,                                   !- Value Until Time 1
  8,                                      !- Hour 2
  0,                                      !- Minute 2
  0.1,                                    !- Value Until Time 2
  14,                                     !- Hour 3
  0,                                      !- Minute 3
  0.5,                                    !- Value Until Time 3
  17,                                     !- Hour 4
  0,                                      !- Minute 4
  0.15,                                   !- Value Until Time 4
  24,                                     !- Hour 5
  0,                                      !- Minute 5
  0.05;                                   !- Value Until Time 5

OS:Schedule:Ruleset,
  {e9dd2f6a-3c0a-4099-ac84-ea4f893fc1f3}, !- Handle
  Medium Office Electric Equipment Schedule, !- Name
  {9e4ca21d-f72e-4f78-9fb7-d7a1104ac3b7}, !- Schedule Type Limits Name
  {7cebdfb6-49c4-44b7-aea6-d29e887fb59f}, !- Default Day Schedule Name
  {4b88a76d-b345-40db-a74a-525876b0765d}, !- Summer Design Day Schedule Name
  {2c2802b5-831f-44d0-b173-7eecef6dbb2b}; !- Winter Design Day Schedule Name

OS:Schedule:Day,
  {7cebdfb6-49c4-44b7-aea6-d29e887fb59f}, !- Handle
  Medium Office Electric Equipment All Other Days Schedule, !- Name
  {9e4ca21d-f72e-4f78-9fb7-d7a1104ac3b7}, !- Schedule Type Limits Name
  ,                                       !- Interpolate to Timestep
  24,                                     !- Hour 1
  0,                                      !- Minute 1
  0.3;                                    !- Value Until Time 1

OS:Schedule:Day,
  {f2926b44-c56e-46a3-af4a-3bcf7dd6d556}, !- Handle
  Medium Office Electric Equipment Summer Design Day Schedule, !- Name
  ,                                       !- Schedule Type Limits Name
  ,                                       !- Interpolate to Timestep
  6,                                      !- Hour 1
  0,                                      !- Minute 1
  1,                                      !- Value Until Time 1
  24,                                     !- Hour 2
  0,                                      !- Minute 2
  0;                                      !- Value Until Time 2

OS:Schedule:Day,
  {4b88a76d-b345-40db-a74a-525876b0765d}, !- Handle
  Medium Office Electric Equipment Summer Design Day Schedule 1, !- Name
  {9e4ca21d-f72e-4f78-9fb7-d7a1104ac3b7}, !- Schedule Type Limits Name
  ,                                       !- Interpolate to Timestep
  6,                                      !- Hour 1
  0,                                      !- Minute 1
  1,                                      !- Value Until Time 1
  24,                                     !- Hour 2
  0,                                      !- Minute 2
  0;                                      !- Value Until Time 2

OS:Schedule:Day,
  {d7a4b95d-fc55-4da3-9cae-5a88844417fd}, !- Handle
  Medium Office Electric Equipment Winter Design Day Schedule, !- Name
  ,                                       !- Schedule Type Limits Name
  ,                                       !- Interpolate to Timestep
  24,                                     !- Hour 1
  0,                                      !- Minute 1
  0;                                      !- Value Until Time 1

OS:Schedule:Day,
  {2c2802b5-831f-44d0-b173-7eecef6dbb2b}, !- Handle
  Medium Office Electric Equipment Winter Design Day Schedule 1, !- Name
  {9e4ca21d-f72e-4f78-9fb7-d7a1104ac3b7}, !- Schedule Type Limits Name
  ,                                       !- Interpolate to Timestep
  24,                                     !- Hour 1
  0,                                      !- Minute 1
  0;                                      !- Value Until Time 1

OS:Schedule:Rule,
  {3558a571-5896-44dc-92c4-1720a18bf6b6}, !- Handle
  Medium Office Electric Equipment Schedule Weekdays Rule, !- Name
  {e9dd2f6a-3c0a-4099-ac84-ea4f893fc1f3}, !- Schedule Ruleset Name
  1,                                      !- Rule Order
  {b4dda49c-1eda-4db0-bf21-f1f2eef6391e}, !- Day Schedule Name
  ,                                       !- Apply Sunday
  Yes,                                    !- Apply Monday
  Yes,                                    !- Apply Tuesday
  Yes,                                    !- Apply Wednesday
  Yes,                                    !- Apply Thursday
  Yes;                                    !- Apply Friday

OS:Schedule:Day,
  {b4dda49c-1eda-4db0-bf21-f1f2eef6391e}, !- Handle
  Medium Office Electric Equipment Weekdays Schedule, !- Name
  {9e4ca21d-f72e-4f78-9fb7-d7a1104ac3b7}, !- Schedule Type Limits Name
  ,                                       !- Interpolate to Timestep
  8,                                      !- Hour 1