
OS:Version,
  {3af4e5b4-6dde-430f-9623-f0523ba88590}, !- Handle
  1.9.0;                                  !- Version Identifier

OS:SimulationControl,
  {31c0c61e-6d3b-4604-8492-cd62950254b6}, !- Handle
  Yes,                                    !- Do Zone Sizing Calculation
  Yes,                                    !- Do System Sizing Calculation
  ,                                       !- Do Plant Sizing Calculation
  No,                                     !- Run Simulation for Sizing Periods
  Yes;                                    !- Run Simulation for Weather File Run Periods

OS:Timestep,
  {6513df8b-1e22-4a24-b036-cfeb3ec9a27b}, !- Handle
  6;                                      !- Number of Timesteps per Hour

OS:RunPeriod,
  {9da182a7-11a2-4400-894c-1871feb517a3}, !- Handle
  Run Period 1,                           !- Name
  1,                                      !- Begin Month
  1,                                      !- Begin Day of Month
  12,                                     !- End Month
  31,                                     !- End Day of Month
  No,                                     !- Use Weather File Holidays and Special Days
  No,                                     !- Use Weather File Daylight Saving Period
  No,                                     !- Apply Weekend Holiday Rule
  Yes,                                    !- Use Weather File Rain Indicators
  Yes,                                    !- Use Weather File Snow Indicators
  1;                                      !- Number of Times Runperiod to be Repeated

OS:SurfaceConvectionAlgorithm:Inside,
  {61a6537a-6eb0-42ff-8c06-852f8ee6bedb}, !- Handle
  TARP;                                   !- Algorithm

OS:SurfaceConvectionAlgorithm:Outside,
  {ed5057de-da81-4adb-b89c-74880a609b18}, !- Handle
  DOE-2;                                  !- Algorithm

OS:HeatBalanceAlgorithm,
  {68b17fdc-4860-44d8-b95e-c52f3996d35d}, !- Handle
  ConductionTransferFunction,             !- Algorithm
  200;                                    !- Surface Temperature Upper Limit {C}

OS:ZoneAirHeatBalanceAlgorithm,
  {d5ff2a59-3e37-4853-a8e2-5963ad4a080f}, !- Handle
  ThirdOrderBackwardDifference;           !- Algorithm

OS:ConvergenceLimits,
  {b7d24cb5-0fca-451f-98e0-b2e8d5d9f904}, !- Handle
  1;                                      !- Minimum System Timestep {minutes}

OS:ShadowCalculation,
  {7ac08336-ed48-4a08-9d68-960674dad95c}, !- Handle
  20,                                     !- Calculation Frequency
  15000;                                  !- Maximum Figures in Shadow Overlap Calculations

OS:Site,
  {361db565-b560-4e0d-b5f8-12b3db836858}, !- Handle
  Site 1,                                 !- Name
  41.77,                                  !- Latitude {deg}
  -87.75,                                 !- Longitude {deg}
  -6,                                     !- Time Zone {hr}
  190,                                    !- Elevation {m}
  ;                                       !- Terrain

OS:Site:GroundTemperature:BuildingSurface,
  {41fac80a-509a-4bed-9cf6-8143db42b7ab}, !- Handle
  19.527,                                 !- January Ground Temperature {C}
  19.502,                                 !- February Ground Temperature {C}
  19.536,                                 !- March Ground Temperature {C}
  19.598,                                 !- April Ground Temperature {C}
  20.002,                                 !- May Ground Temperature {C}
  21.64,                                  !- June Ground Temperature {C}
  22.225,                                 !- July Ground Temperature {C}
  22.375,                                 !- August Ground Temperature {C}
  21.449,                                 !- September Ground Temperature {C}
  20.121,                                 !- October Ground Temperature {C}
  19.802,                                 !- November Ground Temperature {C}
  19.633;                                 !- December Ground Temperature {C}

OS:Site:WaterMainsTemperature,
  {6fc40ce2-fb6e-4f8e-a80b-a88f2e2ec13d}, !- Handle
  Correlation,                            !- Calculation Method
  ,                                       !- Temperature Schedule Name
  9.69,                                   !- Annual Average Outdoor Air Temperature {C}
  28.1;                                   !- Maximum Difference In Monthly Average Outdoor Air Temperatures {deltaC}

OS:SizingPeriod:DesignDay,
  {183a6ecd-5bb1-4bb4-a82a-a365eef7d619}, !- Handle
  Sizing Period Design Day 1,             !- Name
  -20.6,                                  !- Maximum Dry-Bulb Temperature {C}
  0,                                      !- Daily Dry-Bulb Temperature Range {deltaC}
  -20.6,                                  !- Humidity Indicating Conditions at Maximum Dry-Bulb {BasedOnField A3}
  99063,                                  !- Barometric Pressure {Pa}
  4.9,                                    !- Wind Speed {m/s}
  270,                                    !- Wind Direction {deg}
  0,                                      !- Sky Clearness
  0,                                      !- Rain Indicator
  0,                                      !- Snow Indicator
  21,                                     !- Day of Month
  1,                                      !- Month
  WinterDesignDay,                        !- Day Type
  0,                                      !- Daylight Saving Time Indicator
  WetBulb,                                !- Humidity Indicating Type
  ,                                       !- Humidity Indicating Day Schedule Name
  DefaultMultipliers,                     !- Dry-Bulb Temperature Range Modifier Type
  ,                                       !- Dry-Bulb Temperature Range Modifier Schedule Name
  AshraeClearSky;                         !- Solar Model Indicator

OS:SizingPeriod:DesignDay,
  {640fa484-6f80-4b4c-aa84-ed6e632e8993}, !- Handle
  Sizing Period Design Day 2,             !- Name
  33.2,                                   !- Maximum Dry-Bulb Temperature {C}
  10.7,                                   !- Daily Dry-Bulb Temperature Range {deltaC}
  23.8,                                   !- Humidity Indicating Conditions at Maximum Dry-Bulb {BasedOnField A3}
  99063,                                  !- Barometric Pressure {Pa}
  5.3,                                    !- Wind Speed {m/s}
  230,                                    !- Wind Direction {deg}
  1,                                      !- Sky Clearness
  0,                                      !- Rain Indicator
  0,                                      !- Snow Indicator
  21,                                     !- Day of Month
  7,                                      !- Month
  SummerDesignDay,                        !- Day Type
  0,                                      !- Daylight Saving Time Indicator
  WetBulb,                                !- Humidity Indicating Type
  ,                                       !- Humidity Indicating Day Schedule Name
  DefaultMultipliers,                     !- Dry-Bulb Temperature Range Modifier Type
  ,                                       !- Dry-Bulb Temperature Range Modifier Schedule Name
  AshraeClearSky;                         !- Solar Model Indicator

OS:ScheduleTypeLimits,
  {9dc92dc3-7d79-4dbf-98ab-c63a777cf1fa}, !- Handle
  Temperature,                            !- Name
  -60,                                    !- Lower Limit Value {BasedOnField A4}
  200,                                    !- Upper Limit Value {BasedOnField A4}
  CONTINUOUS,                             !- Numeric Type
  Temperature;                            !- Unit Type

OS:DefaultScheduleSet,
  {ac829aa6-610b-401e-bb42-e631b32634a5}, !- Handle
  Default Schedules,                      !- Name
  ,                                       !- Hours of Operation Schedule Name
  {c89fabde-e726-4eb0-b634-886b19e5473c}, !- Number of People Schedule Name
  {ddc9dd23-fed2-4f84-b37a-3322bb2cb114}, !- People Activity Level Schedule Name
  {d00aa29f-de8c-480b-ab1b-8a396e5447f3}, !- Lighting Schedule Name
  {4061fa97-9f96-4818-a186-88d2888bf5d6}, !- Electric Equipment Schedule Name
  {2c56e538-d220-42d3-99b0-bf560327887e}, !- Gas Equipment Schedule Name
  {150fec09-d6ba-41b6-84ba-48e999a804e9}, !- Hot Water Equipment Schedule Name
  {c36471ad-b729-4455-9a05-c84b274d4b32}, !- Infiltration Schedule Name
  ,                                       !- Steam Equipment Schedule Name
  ;                                       !- Other Equipment Schedule Name

OS:Schedule:Ruleset,
  {c89fabde-e726-4eb0-b634-886b19e5473c}, !- Handle
  Medium Office Number of People Schedule, !- Name
  {7106deee-e12b-4b77-a049-4e454edcc9a9}, !- Schedule Type Limits Name
  {ce17f822-7b22-4db5-a13b-26f84653ddc6}, !- Default Day Schedule Name
  {1b0d1791-e7e4-4294-8254-95ade965f7b4}; !- Summer Design Day Schedule Name

OS:Schedule:Day,
  {ce17f822-7b22-4db5-a13b-26f84653ddc6}, !- Handle
  Medium Office Number of People All Other Days Schedule, !- Name
  {7106deee-e12b-4b77-a049-4e454edcc9a9}, !- Schedule Type Limits Name
  ,                                       !- Interpolate to Timestep
  24,                                     !- Hour 1
  0,                                      !- Minute 1
  0;                                      !- Value Until Time 1

OS:Schedule:Day,
  {535601cf-3272-4322-94e2-434bcb8de20f}, !- Handle
  Medium Office Number of People Summer Design Day Schedule, !- Name
  ,                                       !- Schedule Type Limits Name
  ,                                       !- Interpolate to Timestep
  6,                                      !- Hour 1
  0,                                      !- Minute 1
  0,                                      !- Value Until Time 1
  22,                                     !- Hour 2
  0,                                      !- Minute 2
  1,                                      !- Value Until Time 2
  24,                                     !- Hour 3
  0,                                      !- Minute 3
  0.05;                                   !- Value Until Time 3

OS:Schedule:Day,
  {1b0d1791-e7e4-4294-8254-95ade965f7b4}, !- Handle
  Medium Office Number of People Summer Design Day Schedule 1, !- Name
  {7106deee-e12b-4b77-a049-4e454edcc9a9}, !- Schedule Type Limits Name
  ,                                       !- Interpolate to Timestep
  6,                                      !- Hour 1
  0,                                      !- Minute 1
  0,                                      !- Value Until Time 1
  22,                                     !- Hour 2
  0,                                      !- Minute 2
  1,                                      !- Value Until Time 2
  24,                                     !- Hour 3
  0,                                      !- Minute 3
  0.05;                                   !- Value Until Time 3

OS:Schedule:Rule,
  {3988f148-3897-4fd9-947d-5edda2859530}, !- Handle
  Medium Office Number of People Schedule Weekdays Rule, !- Name
  {c89fabde-e726-4eb0-b634-886b19e5473c}, !- Schedule Ruleset Name
  1,                                      !- Rule Order
  {b42b1b21-6605-45c3-9306-fd4cc22beae6}, !- Day Schedule Name
  ,                                       !- Apply Sunday
  Yes,                                    !- Apply Monday
  Yes,                                    !- Apply Tuesday
  Yes,                                    !- Apply Wednesday
  Yes,                                    !- Apply Thursday
  Yes;                                    !- Apply Friday

OS:Schedule:Day,
  {b42b1b21-6605-45c3-9306-fd4cc22beae6}, !- Handle
  Medium Office Number of People Weekdays Schedule, !- Name
  {7106deee-e12b-4b77-a049-4e454edcc9a9}, !- Schedule Type Limits Name
  ,                                       !- Interpolate to Timestep
  6,                                      !- Hour 1
  0,                                      !- Minute 1
  0,                                      !- Value Until Time 1
  7,                                      !- Hour 2
  0,                                      !- Minute 2
  0.1,                                    !- Value Until Time 2
  8,                                      !- Hour 3
  0,                                      !- Minute 3
  0.2,                                    !- Value Until Time 3
  12,                                     !- Hour 4
  0,                                      !- Minute 4
  0.95,                                   !- Value Until Time 4
  13,                                     !- Hour 5
  0,                                      !- Minute 5
  0.5,                                    !- Value Until Time 5
  17,                                     !- Hour 6
  0,                                      !- Minute 6
  0.95,                                   !- Value Until Time 6
  18,                                     !- Hour 7
  0,                                      !- Minute 7
  0.7,                                    !- Value Until Time 7
  20,                                     !- Hour 8
  0,                                      !- Minute 8
  0.4,                                    !- Value Until Time 8
  22,                                     !- Hour 9
  0,                                      !- Minute 9
  0.1,                                    !- Value Until Time 9
  24,                                     !- Hour 10
  0,                                      !- Minute 10
  0.05;                                   !- Value Until Time 10

OS:Schedule:Rule,
  {bc6a34d4-87a8-4304-9f19-3fddb7492c37}, !- Handle
  Medium Office Number of People Schedule Saturday Rule, !- Name
  {c89fabde-e726-4eb0-b634-886b19e5473c}, !- Schedule Ruleset Name
  0,                                      !- Rule Order
  {1c5e64fd-2e4f-49e6-91bb-aa0f3e1d8f4b}, !- Day Schedule Name
  ,                                       !- Apply Sunday
  ,                                       !- Apply Monday
  ,                                       !- Apply Tuesday
  ,                                       !- Apply Wednesday
  ,                                       !- Apply Thursday
  ,                                       !- Apply Friday
  Yes;                                    !- Apply Saturday

OS:Schedule:Day,
  {1c5e64fd-2e4f-49e6-91bb-aa0f3e1d8f4b}, !- Handle
  Medium Office Number of People Saturday Schedule, !- Name
  {7106deee-e12b-4b77-a049-4e454edcc9a9}, !- Schedule Type Limits Name
  ,                                       !- Interpolate to Timestep
  6,                                      !- Hour 1
  0,                                      !- Minute 1
  0,                                      !- Value Until Time 1
  8,                                      !- Hour 2
  0,                                      !- Minute 2
  0.1,                                    !- Value Until Time 2
  14,                                     !- Hour 3
  0,                                      !- Minute 3
  0.5,                                    !- Value Until Time 3
  17,                                     !- Hour 4
  0,                                      !- Minute 4
  0.1,                                    !- Value Until Time 4
  24,                                     !- Hour 5
  0,                                      !- Minute 5
  0;                                      !- Value Until Time 5

OS:ScheduleTypeLimits,
  {7106deee-e12b-4b77-a049-4e454edcc9a9}, !- Handle
  Fractional,                             !- Name
  0,                                      !- Lower Limit Value {BasedOnField A4}
  1,                                      !- Upper Limit Value {BasedOnField A4}
  Continuous;                             !- Numeric Type

OS:Schedule:Ruleset,
  {ddc9dd23-fed2-4f84-b37a-3322bb2cb114}, !- Handle
  Medium Office People Activity Level Schedule, !- Name
  {e1544d7f-1f5b-44b5-aede-a588060419ea}, !- Schedule Type Limits Name
  {76b5bb09-4e7a-4c95-89a4-9702abab7908}; !- Default Day Schedule Name

OS:Schedule:Day,
  {76b5bb09-4e7a-4c95-89a4-9702abab7908}, !- Handle
  Medium Office People Activity Level All Days Schedule, !- Name
  {e1544d7f-1f5b-44b5-aede-a588060419ea}, !- Schedule Type Limits Name
  ,                                       !- Interpolate to Timestep
  24,                                     !- Hour 1
  0,                                      !- Minute 1
  120;                                    !- Value Until Time 1

OS:ScheduleTypeLimits,
  {e1544d7f-1f5b-44b5-aede-a588060419ea}, !- Handle
  ActivityLevel,                          !- Name
  0,                                      !- Lower Limit Value {BasedOnField A4}
  ,                                       !- Upper Limit Value {BasedOnField A4}
  Continuous,                             !- Numeric Type
  ActivityLevel;                          !- Unit Type

OS:Schedule:Ruleset,
  {d00aa29f-de8c-480b-ab1b-8a396e5447f3}, !- Handle
  Medium Office Lighting Schedule,        !- Name
  {7106deee-e12b-4b77-a049-4e454edcc9a9}, !- Schedule Type Limits Name
  {a93710d0-b827-478b-95f2-7b7abfe78649}, !- Default Day Schedule Name
  {563e9056-deee-44c8-99b8-99aba3a3c66d}, !- Summer Design Day Schedule Name
  {8b55f7d3-bcad-4931-b1a4-4e7cc7e445b3}; !- Winter Design Day Schedule Name

OS:Schedule:Day,
  {a93710d0-b827-478b-95f2-7b7abfe78649}, !- Handle
  Medium Office Lighting All Other Days Schedule, !- Name
  {7106deee-e12b-4b77-a049-4e454edcc9a9}, !- Schedule Type Limits Name
  ,                                       !- Interpolate to Timestep
  24,                                     !- Hour 1
  0,                                      !- Minute 1
  0.05;                                   !- Value Until Time 1

OS:Schedule:Day,
  {b0147fe6-41d4-4af0-9564-8af67808e363}, !- Handle
  Medium Office Lighting Summer Design Day Schedule, !- Name
  ,                                       !- Schedule Type Limits Name
  ,                                       !- Interpolate to Timestep
  6,                                      !- Hour 1
  0,                                      !- Minute 1
  1,                                      !- Value Until Time 1
  24,                                     !- Hour 2
  0,                                      !- Minute 2
  0;                                      !- Value Until Time 2

OS:Schedule:Day,
  {563e9056-deee-44c8-99b8-99aba3a3c66d}, !- Handle
  Medium Office Lighting Summer Design Day Schedule 1, !- Name
  {7106deee-e12b-4b77-a049-4e454edcc9a9}, !- Schedule Type Limits Name
  ,                                       !- Interpolate to Timestep
  6,                                      !- Hour 1
  0,                                      !- Minute 1
  1,                                      !- Value Until Time 1
  24,                                     !- Hour 2
  0,                                      !- Minute 2
  0;                                      !- Value Until Time 2

OS:Schedule:Day,
  {e6f663fd-0ea7-4995-8ef7-4373b4ed11c0}, !- Handle
  Medium Office Lighting Winter Design Day Schedule, !- Name
  ,                                       !- Schedule Type Limits Name
  ,                                       !- Interpolate to Timestep
  24,                                     !- Hour 1
  0,                                      !- Minute 1
  0;                                      !- Value Until Time 1

OS:Schedule:Day,
  {8b55f7d3-bcad-4931-b1a4-4e7cc7e445b3}, !- Handle
  Medium Office Lighting Winter Design Day Schedule 1, !- Name
  {7106deee-e12b-4b77-a049-4e454edcc9a9}, !- Schedule Type Limits Name
  ,                                       !- Interpolate to Timestep
  24,                                     !- Hour 1
  0,                                      !- Minute 1
  0;                                      !- Value Until Time 1

OS:Schedule:Rule,
  {f20bf908-5998-4390-a47d-ef54873e5980}, !- Handle
  Medium Office Lighting Schedule Weekdays Rule, !- Name
  {d00aa29f-de8c-480b-ab1b-8a396e5447f3}, !- Schedule Ruleset Name
  1,                                      !- Rule Order
  {56a46aae-aeb6-4227-bc28-3705f6048ef6}, !- Day Schedule Name
  ,                                       !- Apply Sunday
  Yes,                                    !- Apply Monday
  Yes,                                    !- Apply Tuesday
  Yes,                                    !- Apply Wednesday
  Yes,                                    !- Apply Thursday
  Yes;                                    !- Apply Friday

OS:Schedule:Day,
  {56a46aae-aeb6-4227-bc28-3705f6048ef6}, !- Handle
  Medium Office Lighting Weekdays Schedule, !- Name
  {7106deee-e12b-4b77-a049-4e454edcc9a9}, !- Schedule Type Limits Name
  ,                                       !- Interpolate to Timestep
  5,                                      !- Hour 1
  0,                                      !- Minute 1
  0.05,                                   !- Value Until Time 1
  7,                                      !- Hour 2
  0,                                      !- Minute 2
  0.1,                                    !- Value Until Time 2
  8,                                      !- Hour 3
  0,                                      !- Minute 3
  0.3,                                    !- Value Until Time 3
  17,                                     !- Hour 4
  0,                                      !- Minute 4
  0.9,                                    !- Value Until Time 4
  18,                                     !- Hour 5
  0,                                      !- Minute 5
  0.7,                                    !- Value Until Time 5
  20,                                     !- Hour 6
  0,                                      !- Minute 6
  0.5,                                    !- Value Until Time 6
  22,                                     !- Hour 7
  0,                                      !- Minute 7
  0.3,                                    !- Value Until Time 7
  23,                                     !- Hour 8
  0,                                      !- Minute 8
  0.1,                                    !- Value Until Time 8
  24,                                     !- Hour 9
  0,                                      !- Minute 9
  0.05;                                   !- Value Until Time 9

OS:Schedule:Rule,
  {8f312516-e758-4e8c-aa02-c45b829ed612}, !- Handle
  Medium Office Lighting Schedule Saturday Rule, !- Name
  {d00aa29f-de8c-480b-ab1b-8a396e5447f3}, !- Schedule Ruleset Name
  0,                                      !- Rule Order
  {40a869a8-8263-4c49-a821-cf1f2eb07cb4}, !- Day Schedule Name
  ,                                       !- Apply Sunday
  ,                                       !- Apply Monday
  ,                                       !- Apply Tuesday
  ,                                       !- Apply Wednesday
  ,                                       !- Apply Thursday
  ,                                       !- Apply Friday
  Yes;                                    !- Apply Saturday

OS:Schedule:Day,
  {40a869a8-8263-4c49-a821-cf1f2eb07cb4}, !- Handle
  Medium Office Lighting Saturday Schedule, !- Name
  {7106deee-e12b-4b77-a049-4e454edcc9a9}, !- Schedule Type Limits Name
  ,                                       !- Interpolate to Timestep
  6,                                      !- Hour 1
  0,                                      !- Minute 1
  0.05,                                   !- Value Until Time 1
  8,                                      !- Hour 2
  0,                                      !- Minute 2
  0.1,                                    !- Value Until Time 2
  14,                                     !- Hour 3
  0,                                      !- Minute 3
  0.5,                                    !- Value Until Time 3
  17,                                     !- Hour 4
  0,                                      !- Minute 4
  0.15,                                   !- Value Until Time 4
  24,                                     !- Hour 5
  0,                                      !- Minute 5
  0.05;                                   !- Value Until Time 5

OS:Schedule:Ruleset,
  {4061fa97-9f96-4818-a186-88d2888bf5d6}, !- Handle
  Medium Office Electric Equipment Schedule, !- Name
  {7106deee-e12b-4b77-a049-4e454edcc9a9}, !- Schedule Type Limits Name
  {de70b57e-27e8-4b72-b7c5-cebd4fda3220}, !- Default Day Schedule Name
  {39ca9492-0c49-42ee-bbc3-86bef120a534}, !- Summer Design Day Schedule Name
  {b2bcdc62-20c4-4816-8a2f-8120798a3bd2}; !- Winter Design Day Schedule Name

OS:Schedule:Day,
  {de70b57e-27e8-4b72-b7c5-cebd4fda3220}, !- Handle
  Medium Office Electric Equipment All Other Days Schedule, !- Name
  {7106deee-e12b-4b77-a049-4e454edcc9a9}, !- Schedule Type Limits Name
  ,                                       !- Interpolate to Timestep
  24,                                     !- Hour 1
  0,                                      !- Minute 1
  0.3;                                    !- Value Until Time 1

OS:Schedule:Day,
  {9b3ecf8f-2b0a-4686-a6c3-50f7efb881b4}, !- Handle
  Medium Office Electric Equipment Summer Design Day Schedule, !- Name
  ,                                       !- Schedule Type Limits Name
  ,                                       !- Interpolate to Timestep
  6,                                      !- Hour 1
  0,                                      !- Minute 1
  1,                                      !- Value Until Time 1
  24,                                     !- Hour 2
  0,                                      !- Minute 2
  0;                                      !- Value Until Time 2

OS:Schedule:Day,
  {39ca9492-0c49-42ee-bbc3-86bef120a534}, !- Handle
  Medium Office Electric Equipment Summer Design Day Schedule 1, !- Name
  {7106deee-e12b-4b77-a049-4e454edcc9a9}, !- Schedule Type Limits Name
  ,                                       !- Interpolate to Timestep
  6,                                      !- Hour 1
  0,                                      !- Minute 1
  1,                                      !- Value Until Time 1
  24,                                     !- Hour 2
  0,                                      !- Minute 2
  0;                                      !- Value Until Time 2

OS:Schedule:Day,
  {a3ba8164-934a-43e2-ae04-8347eeca26cc}, !- Handle
  Medium Office Electric Equipment Winter Design Day Schedule, !- Name
  ,                                       !- Schedule Type Limits Name
  ,                                       !- Interpolate to Timestep
  24,                                     !- Hour 1
  0,                                      !- Minute 1
  0;                                      !- Value Until Time 1

OS:Schedule:Day,
  {b2bcdc62-20c4-4816-8a2f-8120798a3bd2}, !- Handle
  Medium Office Electric Equipment Winter Design Day Schedule 1, !- Name
  {7106deee-e12b-4b77-a049-4e454edcc9a9}, !- Schedule Type Limits Name
  ,                                       !- Interpolate to Timestep
  24,                                     !- Hour 1
  0,                                      !- Minute 1
  0;                                      !- Value Until Time 1

OS:Schedule:Rule,
  {867399b4-cf48-432d-8380-f82ad1f38dfc}, !- Handle
  Medium Office Electric Equipment Schedule Weekdays Rule, !- Name
  {4061fa97-9f96-4818-a186-88d2888bf5d6}, !- Schedule Ruleset Name
  1,                                      !- Rule Order
  {1eda2cda-dd50-4786-882f-68641c9df565}, !- Day Schedule Name
  ,                                       !- Apply Sunday
  Yes,                                    !- Apply Monday
  Yes,                                    !- Apply Tuesday
  Yes,                                    !- Apply Wednesday
  Yes,                                    !- Apply Thursday
  Yes;                                    !- Apply Friday

OS:Schedule:Day,
  {1eda2cda-dd50-4786-882f-68641c9df565}, !- Handle
  Medium Office Electric Equipment Weekdays Schedule, !- Name
  {7106deee-e12b-4b77-a049-4e454edcc9a9}, !- Schedule Type Limits Name
  ,                                       !- Interpolate to Timestep
  8,                                      !- Hour 1
  0,                                      !- Minute 1
  0.4,                                    !- Value Until Time 1
  12,                                     !- Hour 2
  0,                                      !- Minute 2
  0.9,                                    !- Value Until Time 2
  13,                                     !- Hour 3
  0,                                      !- Minute 3
  0.8,                                    !- Value Until Time 3
  17,                                     !- Hour 4
  0,                                      !- Minute 4
  0.9,                                    !- Value Until Time 4
  18,                                     !- Hour 5
  0,                                      !- Minute 5
  0.8,                                    !- Value Until Time 5
  20,                                     !- Hour 6
  0,                                      !- Minute 6
  0.6,                                    !- Value Until Time 6
  22,                                     !- Hour 7
  0,                                      !- Minute 7
  0.5,                                    !- Value Until Time 7
  24,                                     !- Hour 8
  0,                                      !- Minute 8
  0.4;                                    !- Value Until Time 8

OS:Schedule:Rule,
  {e35f72cc-6df1-45d4-b24d-a5e971e1f4d1}, !- Handle
  Medium Office Electric Equipment Schedule Saturday Rule, !- Name
  {4061fa97-9f96-4818-a186-88d2888bf5d6}, !- Schedule Ruleset Name
  0,                                      !- Rule Order
  {ddc93904-5d09-4360-bb3c-14a4ad28c99c}, !- Day Schedule Name
  ,                                       !- Apply Sunday
  ,                                       !- Apply Monday