
OS:Version,
  {e9a6fcad-dfbf-4bfe-9fce-f9aa59950611},  ! Handle
  0.7.5;                    ! Version Identifier

OS:SimulationControl,
  {0f6bc57c-c226-42fc-bae5-fc675340f5ed},  ! Handle
  Yes,                      ! Do Zone Sizing Calculation
  Yes,                      ! Do System Sizing Calculation
  ,                         ! Do Plant Sizing Calculation
  No,                       ! Run Simulation for Sizing Periods
  Yes;                      ! Run Simulation for Weather File Run Periods

OS:Timestep,
  {2f835e78-dfce-4a7b-bdfe-256cfc76230d},  ! Handle
  6;                        ! Number of Timesteps per Hour

OS:RunPeriod,
  {fea8efcb-b617-425c-a1bb-c21e8b8acad7},  ! Handle
  OS:RunPeriod 1,           ! Name
  1,                        ! Begin Month
  1,                        ! Begin Day of Month
  12,                       ! End Month
  31,                       ! End Day of Month
  No,                       ! Use Weather File Holidays and Special Days
  No,                       ! Use Weather File Daylight Saving Period
  No,                       ! Apply Weekend Holiday Rule
  Yes,                      ! Use Weather File Rain Indicators
  Yes,                      ! Use Weather File Snow Indicators
  1;                        ! Number of Times Runperiod to be Repeated

OS:SurfaceConvectionAlgorithm:Inside,
  {918beca5-e998-495a-a387-ae86d2b8ec07},  ! Handle
  TARP;                     ! Algorithm

OS:SurfaceConvectionAlgorithm:Outside,
  {7df316f4-2d1a-47b9-8799-170bae31ddcc},  ! Handle
  DOE-2;                    ! Algorithm

OS:HeatBalanceAlgorithm,
  {aba05806-2330-4068-96c3-a0135a3e502d},  ! Handle
  ConductionTransferFunction,  ! Algorithm
  200;                      ! Surface Temperature Upper Limit {F}

OS:ZoneAirHeatBalanceAlgorithm,
  {e2409d53-64e9-479b-b2ba-019cf6542700},  ! Handle
  AnalyticalSolution;       ! Algorithm

OS:ConvergenceLimits,
  {cabf283b-b252-43c0-a8db-411bbfd780d3};  ! Handle

OS:ShadowCalculation,
  {5d72278c-018e-4255-8f64-669a11a669a1},  ! Handle
  7,                        ! Calculation Frequency
  15000;                    ! Maximum Figures in Shadow Overlap Calculations

OS:Site,
  {f8b68b8f-6196-4241-8c86-9d6d3ca8122a},  ! Handle
  OS:Site 1,                ! Name
  41.77,                    ! Latitude {deg}
  -87.75,                   ! Longitude {deg}
  -6,                       ! Time Zone {hr}
  190,                      ! Elevation {m}
  ;                         ! Terrain

OS:Site:GroundTemperature:BuildingSurface,
  {6fe9d786-28e3-42e5-9f5f-4923a12e3a47},  ! Handle
  19.527,                   ! January Ground Temperature {C}
  19.502,                   ! February Ground Temperature {C}
  19.536,                   ! March Ground Temperature {C}
  19.598,                   ! April Ground Temperature {C}
  20.002,                   ! May Ground Temperature {C}
  21.64,                    ! June Ground Temperature {C}
  22.225,                   ! July Ground Temperature {C}
  22.375,                   ! August Ground Temperature {C}
  21.449,                   ! September Ground Temperature {C}
  20.121,                   ! October Ground Temperature {C}
  19.802,                   ! November Ground Temperature {C}
  19.633;                   ! December Ground Temperature {C}

OS:Site:WaterMainsTemperature,
  {14cea679-bce1-4165-99cf-20fbe1565d8a},  ! Handle
  Correlation,              ! Calculation Method
  ,                         ! Temperature Schedule Name
  9.69,                     ! Annual Average Outdoor Air Temperature {C}
  28.1;                     ! Maximum Difference In Monthly Average Outdoor Air Temperatures {deltaC}

OS:SizingPeriod:DesignDay,
  {a42b6895-7125-4077-a87a-f697184336d7},  ! Handle
  OS:SizingPeriod:DesignDay 1,  ! Name
  -20.6,                    ! Maximum Dry-Bulb Temperature {C}
  0,                        ! Daily Dry-Bulb Temperature Range {deltaC}
  -20.6,                    ! Humidity Indicating Conditions at Maximum Dry-Bulb {BasedOnField A3}
  99063,                    ! Barometric Pressure {Pa}
  4.9,                      ! Wind Speed {m/s}
  270,                      ! Wind Direction {deg}
  0,                        ! Sky Clearness
  0,                        ! Rain Indicator
  0,                        ! Snow Indicator
  21,                       ! Day of Month
  1,                        ! Month
  WinterDesignDay,          ! Day Type
  0,                        ! Daylight Saving Time Indicator
  WetBulb,                  ! Humidity Indicating Type
  ,                         ! Humidity Indicating Day Schedule Name
  DefaultMultipliers,       ! Dry-Bulb Temperature Range Modifier Type
  ,                         ! Dry-Bulb Temperature Range Modifier Schedule Name
  AshraeClearSky;           ! Solar Model Indicator

OS:SizingPeriod:DesignDay,
  {675a5b64-07e2-4ef7-84fe-c01a1474ce34},  ! Handle
  OS:SizingPeriod:DesignDay 2,  ! Name
  33.2,                     ! Maximum Dry-Bulb Temperature {C}
  10.7,                     ! Daily Dry-Bulb Temperature Range {deltaC}
  23.8,                     ! Humidity Indicating Conditions at Maximum Dry-Bulb {BasedOnField A3}
  99063,                    ! Barometric Pressure {Pa}
  5.3,                      ! Wind Speed {m/s}
  230,                      ! Wind Direction {deg}
  1,                        ! Sky Clearness
  0,                        ! Rain Indicator
  0,                        ! Snow Indicator
  21,                       ! Day of Month
  7,                        ! Month
  SummerDesignDay,          ! Day Type
  0,                        ! Daylight Saving Time Indicator
  WetBulb,                  ! Humidity Indicating Type
  ,                         ! Humidity Indicating Day Schedule Name
  DefaultMultipliers,       ! Dry-Bulb Temperature Range Modifier Type
  ,                         ! Dry-Bulb Temperature Range Modifier Schedule Name
  AshraeClearSky;           ! Solar Model Indicator

OS:ScheduleTypeLimits,
  {45b42913-0e84-403f-83fd-507bb974fa73},  ! Handle
  Fraction,                 ! Name
  0,                        ! Lower Limit Value {BasedOnField A3}
  1,                        ! Upper Limit Value {BasedOnField A3}
  CONTINUOUS;               ! Numeric Type

OS:ScheduleTypeLimits,
  {c66dde6c-4126-48be-9049-7604c3b1bbcf},  ! Handle
  Any Number;               ! Name

OS:ScheduleTypeLimits,
  {18577c17-86d0-4b7f-a541-4d943afeee1c},  ! Handle
  On/Off,                   ! Name
  0,                        ! Lower Limit Value {BasedOnField A3}
  1,                        ! Upper Limit Value {BasedOnField A3}
  DISCRETE;                 ! Numeric Type

OS:ScheduleTypeLimits,
  {e70a80b1-db02-453b-939e-4c89048795bd},  ! Handle
  Control Type,             ! Name
  0,                        ! Lower Limit Value {BasedOnField A3}
  4,                        ! Upper Limit Value {BasedOnField A3}
  DISCRETE;                 ! Numeric Type

OS:ScheduleTypeLimits,
  {e7a99130-ad55-4c00-8208-e1329d0273c3},  ! Handle
  Temperature,              ! Name
  -60,                      ! Lower Limit Value {BasedOnField A3}
  200,                      ! Upper Limit Value {BasedOnField A3}
  CONTINUOUS;               ! Numeric Type

OS:DefaultScheduleSet,
  {1eb3905c-88fb-41e3-b217-ad5467d28d50},  ! Handle
  Default Schedules,        ! Name
  ,                         ! Hours of Operation Schedule Name
  {75a6f3f3-85e4-4ae7-bf03-c1fd3f4c6292},  ! Number of People Schedule Name
  {c7d8d0bf-a3d4-46d1-935c-c79e271abe54},  ! People Activity Level Schedule Name
  {4694fb0a-59b7-4f0d-8a88-3a5a56f6002e},  ! Lighting Schedule Name
  {90795c0a-535a-4607-8507-110d3133cca8},  ! Electric Equipment Schedule Name
  {26f60b7d-aa8b-4076-b944-e0e664680275},  ! Gas Equipment Schedule Name
  {4608ed4c-d02c-4f76-bf3b-090c05070667},  ! Hot Water Equipment Schedule Name
  {aaf77c36-542a-4e39-906e-a8ea0cf1a224},  ! Infiltration Schedule Name
  ,                         ! Steam Equipment Schedule Name
  ;                         ! Other Equipment Schedule Name

OS:Schedule:Ruleset,
  {75a6f3f3-85e4-4ae7-bf03-c1fd3f4c6292},  ! Handle
  Medium Office Number of People Schedule,  ! Name
  ,                         ! Schedule Type Limits Name
  {36602b6d-adc0-4b4e-9a2e-d92097b09f65},  ! Default Day Schedule Name
  {4a5d5719-2af7-48ff-802f-91ea981e59a2};  ! Summer Design Day Schedule Name

OS:Schedule:Day,
  {36602b6d-adc0-4b4e-9a2e-d92097b09f65},  ! Handle
  Medium Office Number of People All Other Days Schedule,  ! Name
  {45b42913-0e84-403f-83fd-507bb974fa73},  ! Schedule Type Limits Name
  ,                         ! Interpolate to Timestep
  24,                       ! Hour 1
  0,                        ! Minute 1
  0;                        ! Value Until Time 1

OS:Schedule:Day,
  {959ee8ed-8bba-4b4f-be1f-df28ea9717a9},  ! Handle
  Medium Office Number of People Summer Design Day Schedule,  ! Name
  {45b42913-0e84-403f-83fd-507bb974fa73},  ! Schedule Type Limits Name
  ,                         ! Interpolate to Timestep
  6,                        ! Hour 1
  0,                        ! Minute 1
  0,                        ! Value Until Time 1
  22,                       ! Hour 2
  0,                        ! Minute 2
  1,                        ! Value Until Time 2
  24,                       ! Hour 3
  0,                        ! Minute 3
  0.05;                     ! Value Until Time 3

OS:Schedule:Day,
  {4a5d5719-2af7-48ff-802f-91ea981e59a2},  ! Handle
  OS:Schedule:Day 1,        ! Name
  {45b42913-0e84-403f-83fd-507bb974fa73},  ! Schedule Type Limits Name
  ,                         ! Interpolate to Timestep
  6,                        ! Hour 1
  0,                        ! Minute 1
  0,                        ! Value Until Time 1
  22,                       ! Hour 2
  0,                        ! Minute 2
  1,                        ! Value Until Time 2
  24,                       ! Hour 3
  0,                        ! Minute 3
  0.05;                     ! Value Until Time 3

OS:Schedule:Rule,
  {27e3b3a0-459a-467b-bdd8-d80b211603ff},  ! Handle
  Medium Office Number of People Schedule Weekdays Rule,  ! Name
  {75a6f3f3-85e4-4ae7-bf03-c1fd3f4c6292},  ! Schedule Ruleset Name
  1,                        ! Rule Order
  {64a86858-a552-4dfe-9cac-6c8559733a95},  ! Day Schedule Name
  ,                         ! Apply Sunday
  Yes,                      ! Apply Monday
  Yes,                      ! Apply Tuesday
  Yes,                      ! Apply Wednesday
  Yes,                      ! Apply Thursday
  Yes;                      ! Apply Friday

OS:Schedule:Day,
  {64a86858-a552-4dfe-9cac-6c8559733a95},  ! Handle
  Medium Office Number of People Weekdays Schedule,  ! Name
  {45b42913-0e84-403f-83fd-507bb974fa73},  ! Schedule Type Limits Name
  ,                         ! Interpolate to Timestep
  6,                        ! Hour 1
  0,                        ! Minute 1
  0,                        ! Value Until Time 1
  7,                        ! Hour 2
  0,                        ! Minute 2
  0.1,                      ! Value Until Time 2
  8,                        ! Hour 3
  0,                        ! Minute 3
  0.2,                      ! Value Until Time 3
  12,                       ! Hour 4
  0,                        ! Minute 4
  0.95,                     ! Value Until Time 4
  13,                       ! Hour 5
  0,                        ! Minute 5
  0.5,                      ! Value Until Time 5
  17,                       ! Hour 6
  0,                        ! Minute 6
  0.95,                     ! Value Until Time 6
  18,                       ! Hour 7
  0,                        ! Minute 7
  0.7,                      ! Value Until Time 7
  20,                       ! Hour 8
  0,                        ! Minute 8
  0.4,                      ! Value Until Time 8
  22,                       ! Hour 9
  0,                        ! Minute 9
  0.1,                      ! Value Until Time 9
  24,                       ! Hour 10
  0,                        ! Minute 10
  0.05;                     ! Value Until Time 10

OS:Schedule:Rule,
  {6d8f0068-5c96-4cdc-b0b8-b02c2ff0f5ab},  ! Handle
  Medium Office Number of People Schedule Saturday Rule,  ! Name
  {75a6f3f3-85e4-4ae7-bf03-c1fd3f4c6292},  ! Schedule Ruleset Name
  0,                        ! Rule Order
  {c7224681-71c9-45ce-995b-595966d59172},  ! Day Schedule Name
  ,                         ! Apply Sunday
  ,                         ! Apply Monday
  ,                         ! Apply Tuesday
  ,                         ! Apply Wednesday
  ,                         ! Apply Thursday
  ,                         ! Apply Friday
  Yes;                      ! Apply Saturday

OS:Schedule:Day,
  {c7224681-71c9-45ce-995b-595966d59172},  ! Handle
  Medium Office Number of People Saturday Schedule,  ! Name
  {45b42913-0e84-403f-83fd-507bb974fa73},  ! Schedule Type Limits Name
  ,                         ! Interpolate to Timestep
  6,                        ! Hour 1
  0,                        ! Minute 1
  0,                        ! Value Until Time 1
  8,                        ! Hour 2
  0,                        ! Minute 2
  0.1,                      ! Value Until Time 2
  14,                       ! Hour 3
  0,                        ! Minute 3
  0.5,                      ! Value Until Time 3
  17,                       ! Hour 4
  0,                        ! Minute 4
  0.1,                      ! Value Until Time 4
  24,                       ! Hour 5
  0,                        ! Minute 5
  0;                        ! Value Until Time 5

OS:Schedule:Ruleset,
  {c7d8d0bf-a3d4-46d1-935c-c79e271abe54},  ! Handle
  Medium Office People Activity Level Schedule,  ! Name
  ,                         ! Schedule Type Limits Name
  {f599c258-fa84-4a1b-aedf-740da5f95c45};  ! Default Day Schedule Name

OS:Schedule:Day,
  {f599c258-fa84-4a1b-aedf-740da5f95c45},  ! Handle
  Medium Office People Activity Level All Days Schedule,  ! Name
  {c66dde6c-4126-48be-9049-7604c3b1bbcf},  ! Schedule Type Limits Name
  ,                         ! Interpolate to Timestep
  24,                       ! Hour 1
  0,                        ! Minute 1
  120;                      ! Value Until Time 1

OS:Schedule:Ruleset,
  {4694fb0a-59b7-4f0d-8a88-3a5a56f6002e},  ! Handle
  Medium Office Lighting Schedule,  ! Name
  ,                         ! Schedule Type Limits Name
  {16311d0d-6982-4413-b722-758a0443f46e},  ! Default Day Schedule Name
  {8ff3b54a-5c2b-410f-947b-eaae92ea078f},  ! Summer Design Day Schedule Name
  {f09fd8a0-7e96-405c-b2c1-283b035ddbe6};  ! Winter Design Day Schedule Name

OS:Schedule:Day,
  {16311d0d-6982-4413-b722-758a0443f46e},  ! Handle
  Medium Office Lighting All Other Days Schedule,  ! Name
  {45b42913-0e84-403f-83fd-507bb974fa73},  ! Schedule Type Limits Name
  ,                         ! Interpolate to Timestep
  24,                       ! Hour 1
  0,                        ! Minute 1
  0.05;                     ! Value Until Time 1

OS:Schedule:Day,
  {d82a03d4-0669-487c-b2eb-781ddf1c688e},  ! Handle
  Medium Office Lighting Summer Design Day Schedule,  ! Name
  {45b42913-0e84-403f-83fd-507bb974fa73},  ! Schedule Type Limits Name
  ,                         ! Interpolate to Timestep
  6,                        ! Hour 1
  0,                        ! Minute 1
  1,                        ! Value Until Time 1
  24,                       ! Hour 2
  0,                        ! Minute 2
  0;                        ! Value Until Time 2

OS:Schedule:Day,
  {8ff3b54a-5c2b-410f-947b-eaae92ea078f},  ! Handle
  OS:Schedule:Day 2,        ! Name
  {45b42913-0e84-403f-83fd-507bb974fa73},  ! Schedule Type Limits Name
  ,                         ! Interpolate to Timestep
  6,                        ! Hour 1
  0,                        ! Minute 1
  1,                        ! Value Until Time 1
  24,                       ! Hour 2
  0,                        ! Minute 2
  0;                        ! Value Until Time 2

OS:Schedule:Day,
  {00f4432a-5e92-4f70-a76f-95784b120b7e},  ! Handle
  Medium Office Lighting Winter Design Day Schedule,  ! Name
  {45b42913-0e84-403f-83fd-507bb974fa73},  ! Schedule Type Limits Name
  ,                         ! Interpolate to Timestep
  24,                       ! Hour 1
  0,                        ! Minute 1
  0;                        ! Value Until Time 1

OS:Schedule:Day,
  {f09fd8a0-7e96-405c-b2c1-283b035ddbe6},  ! Handle
  OS:Schedule:Day 3,        ! Name
  {45b42913-0e84-403f-83fd-507bb974fa73},  ! Schedule Type Limits Name
  ,                         ! Interpolate to Timestep
  24,                       ! Hour 1
  0,                        ! Minute 1
  0;                        ! Value Until Time 1

OS:Schedule:Rule,
  {1435cc58-7f2c-44fe-9265-a95baf256507},  ! Handle
  Medium Office Lighting Schedule Weekdays Rule,  ! Name
  {4694fb0a-59b7-4f0d-8a88-3a5a56f6002e},  ! Schedule Ruleset Name
  1,                        ! Rule Order
  {5ffd0c09-a594-4dd5-9714-dc5c0921215f},  ! Day Schedule Name
  ,                         ! Apply Sunday
  Yes,                      ! Apply Monday
  Yes,                      ! Apply Tuesday
  Yes,                      ! Apply Wednesday
  Yes,                      ! Apply Thursday
  Yes;                      ! Apply Friday

OS:Schedule:Day,
  {5ffd0c09-a594-4dd5-9714-dc5c0921215f},  ! Handle
  Medium Office Lighting Weekdays Schedule,  ! Name
  {45b42913-0e84-403f-83fd-507bb974fa73},  ! Schedule Type Limits Name
  ,                         ! Interpolate to Timestep
  5,                        ! Hour 1
  0,                        ! Minute 1
  0.05,                     ! Value Until Time 1
  7,                        ! Hour 2
  0,                        ! Minute 2
  0.1,                      ! Value Until Time 2
  8,                        ! Hour 3
  0,                        ! Minute 3
  0.3,                      ! Value Until Time 3
  17,                       ! Hour 4
  0,                        ! Minute 4
  0.9,                      ! Value Until Time 4
  18,                       ! Hour 5
  0,                        ! Minute 5
  0.7,                      ! Value Until Time 5
  20,                       ! Hour 6
  0,                        ! Minute 6
  0.5,                      ! Value Until Time 6
  22,                       ! Hour 7
  0,                        ! Minute 7
  0.3,                      ! Value Until Time 7
  23,                       ! Hour 8
  0,                        ! Minute 8
  0.1,                      ! Value Until Time 8
  24,                       ! Hour 9
  0,                        ! Minute 9
  0.05;                     ! Value Until Time 9

OS:Schedule:Rule,
  {b77ef6cf-b447-4888-80b8-9f09075dadcb},  ! Handle
  Medium Office Lighting Schedule Saturday Rule,  ! Name
  {4694fb0a-59b7-4f0d-8a88-3a5a56f6002e},  ! Schedule Ruleset Name
  0,                        ! Rule Order
  {e3cfddb9-2e88-4bad-85aa-2f1818e9de88},  ! Day Schedule Name
  ,                         ! Apply Sunday
  ,                         ! Apply Monday
  ,                         ! Apply Tuesday
  ,                         ! Apply Wednesday
  ,                         ! Apply Thursday
  ,                         ! Apply Friday
  Yes;                      ! Apply Saturday

OS:Schedule:Day,
  {e3cfddb9-2e88-4bad-85aa-2f1818e9de88},  ! Handle
  Medium Office Lighting Saturday Schedule,  ! Name
  {45b42913-0e84-403f-83fd-507bb974fa73},  ! Schedule Type Limits Name
  ,                         ! Interpolate to Timestep
  6,                        ! Hour 1
  0,                        ! Minute 1
  0.05,                     ! Value Until Time 1
  8,                        ! Hour 2
  0,                        ! Minute 2
  0.1,                      ! Value Until Time 2
  14,                       ! Hour 3
  0,                        ! Minute 3
  0.5,                      ! Value Until Time 3
  17,                       ! Hour 4
  0,                        ! Minute 4
  0.15,                     ! Value Until Time 4
  24,                       ! Hour 5
  0,                        ! Minute 5
  0.05;                     ! Value Until Time 5

OS:Schedule:Ruleset,
  {90795c0a-535a-4607-8507-110d3133cca8},  ! Handle
  Medium Office Electric Equipment Schedule,  ! Name
  ,                         ! Schedule Type Limits Name
  {265c01de-fa7b-49d0-9061-0bff6e1fa0af},  ! Default Day Schedule Name
  {7302c08a-77f3-4368-8621-26a5b1c144f4},  ! Summer Design Day Schedule Name
  {6caf1f3b-2f23-47b6-a984-c12d94d9871c};  ! Winter Design Day Schedule Name

OS:Schedule:Day,
  {265c01de-fa7b-49d0-9061-0bff6e1fa0af},  ! Handle
  Medium Office Electric Equipment All Other Days Schedule,  ! Name
  {45b42913-0e84-403f-83fd-507bb974fa73},  ! Schedule Type Limits Name
  ,                         ! Interpolate to Timestep
  24,                       ! Hour 1
  0,                        ! Minute 1
  0.3;                      ! Value Until Time 1

OS:Schedule:Day,
  {625705ec-4a04-4b2b-8715-4afe24937c6b},  ! Handle
  Medium Office Electric Equipment Summer Design Day Schedule,  ! Name
  {45b42913-0e84-403f-83fd-507bb974fa73},  ! Schedule Type Limits Name
  ,                         ! Interpolate to Timestep
  6,                        ! Hour 1
  0,                        ! Minute 1
  1,                        ! Value Until Time 1
  24,                       ! Hour 2
  0,                        ! Minute 2
  0;                        ! Value Until Time 2

OS:Schedule:Day,
  {7302c08a-77f3-4368-8621-26a5b1c144f4},  ! Handle
  OS:Schedule:Day 4,        ! Name
  {45b42913-0e84-403f-83fd-507bb974fa73},  ! Schedule Type Limits Name
  ,                         ! Interpolate to Timestep
  6,                        ! Hour 1
  0,                        ! Minute 1
  1,                        ! Value Until Time 1
  24,                       ! Hour 2
  0,                        ! Minute 2
  0;                        ! Value Until Time 2

OS:Schedule:Day,
  {7992075f-4af0-410d-b788-ed041c513bb2},  ! Handle
  Medium Office Electric Equipment Winter Design Day Schedule,  ! Name
  {45b42913-0e84-403f-83fd-507bb974fa73},  ! Schedule Type Limits Name
  ,                         ! Interpolate to Timestep
  24,                       ! Hour 1
  0,                        ! Minute 1
  0;                        ! Value Until Time 1

OS:Schedule:Day,
  {6caf1f3b-2f23-47b6-a984-c12d94d9871c},  ! Handle
  OS:Schedule:Day 5,        ! Name
  {45b42913-0e84-403f-83fd-507bb974fa73},  ! Schedule Type Limits Name
  ,                         ! Interpolate to Timestep
  24,                       ! Hour 1
  0,                        ! Minute 1
  0;                        ! Value Until Time 1

OS:Schedule:Rule,
  {530c4c0e-e8da-400c-a12b-adecab2e3558},  ! Handle
  Medium Office Electric Equipment Schedule Weekdays Rule,  ! Name
  {90795c0a-535a-4607-8507-110d3133cca8},  ! Schedule Ruleset Name
  1,                        ! Rule Order
  {f9561827-6185-4696-8083-0f30425f8158},  ! Day Schedule Name
  ,                         ! Apply Sunday
  Yes,                      ! Apply Monday
  Yes,                      ! Apply Tuesday
  Yes,                      ! Apply Wednesday
  Yes,                      ! Apply Thursday
  Yes;                      ! Apply Friday

OS:Schedule:Day,
  {f9561827-6185-4696-8083-0f30425f8158},  ! Handle
  Medium Office Electric Equipment Weekdays Schedule,  ! Name
  {45b42913-0e84-403f-83fd-507bb974fa73},  ! Schedule Type Limits Name
  ,                         ! Interpolate to Timestep
  8,                        ! Hour 1
  0,                        ! Minute 1
  0.4,                      ! Value Until Time 1
  12,                       ! Hour 2
  0,                        ! Minute 2
  0.9,                      ! Value Until Time 2
  13,                       ! Hour 3
  0,                        ! Minute 3
  0.8,                      ! Value Until Time 3
  17,                       ! Hour 4
  0,                        ! Minute 4
  0.9,                      ! Value Until Time 4
  18,                       ! Hour 5
  0,                        ! Minute 5
  0.8,                      ! Value Until Time 5
  20,                       ! Hour 6
  0,                        ! Minute 6
  0.6,                      ! Value Until Time 6
  22,                       ! Hour 7
  0,                        ! Minute 7
  0.5,                      ! Value Until Time 7
  24,                       ! Hour 8
  0,                        ! Minute 8
  0.4;                      ! Value Until Time 8

OS:Schedule:Rule,
  {142e0900-ef94-4f8f-8cbf-ae9744a8c8d5},  ! Handle
  Medium Office Electric Equipment Schedule Saturday Rule,  ! Name
  {90795c0a-535a-4607-8507-110d3133cca8},  ! Schedule Ruleset Name
  0,                        ! Rule Order
  {30b99f9d-fc70-4f8a-a5a4-a672c08abb49},  ! Day Schedule Name
  ,                         ! Apply Sunday
  ,                         ! Apply Monday
  ,                         ! Apply Tuesday
  ,                         ! Apply Wednesday
  ,                         ! Apply Thursday
  ,                         ! Apply Friday
  Yes;                      ! Apply Saturday

OS:Schedule:Day,
  {30b99f9d-fc70-4f8a-a5a4-a672c08abb49},  ! Handle
  Medium Office Electric Equipment Saturday Schedule,  ! Name
  {45b42913-0e84-403f-83fd-507bb974fa73},  ! Schedule Type Limits Name
  ,                         ! Interpolate to Timestep
  6,                        ! Hour 1
  0,                        ! Minute 1
  0.3,                      ! Value Until Time 1
  8,                        ! Hour 2
  0,                        ! Minute 2
  0.4,                      ! Value Until Time 2
  14,                       ! Hour 3
  0,                        ! Minute 3
  0.5,                      ! Value Until Time 3
  17,                       ! Hour 4
  0,                        ! Minute 4
  0.35,                     ! Value Until Time 4
  24,                       ! Hour 5
  0,                        ! Minute 5
  0.3;                      ! Value Until Time 5

OS:Schedule:Ruleset,
  {26f60b7d-aa8b-4076-b944-e0e664680275},  ! Handle
  Medium Office Gas Equipment Schedule,  ! Name
  ,                         ! Schedule Type Limits Name
  {49647cb4-9def-4ca2-9c3c-0831281943f2},  ! Default Day Schedule Name
  {4f5a5bee-4f17-4df1-b32e-b7bce2ae5189},  ! Summer Design Day Schedule Name
  {ab4a1875-0604-445c-b9d2-50f0aba9087c};  ! Winter Design Day Schedule Name

OS:Schedule:Day,
  {49647cb4-9def-4ca2-9c3c-0831281943f2},  ! Handle
  Medium Office Gas Equipment All Other Days Schedule,  ! Name
  {45b42913-0e84-403f-83fd-507bb974fa73},  ! Schedule Type Limits Name
  ,                         ! Interpolate to Timestep
  24,                       ! Hour 1
  0,                        ! Minute 1
  0.3;                      ! Value Until Time 1

OS:Schedule:Day,
  {cff34f0f-d0f0-4fac-a18c-640e161ae12d},  ! Handle
  Medium Office Gas Equipment Summer Design Day Schedule,  ! Name
  {45b42913-0e84-403f-83fd-507bb974fa73},  ! Schedule Type Limits Name
  ,                         ! Interpolate to Timestep
  6,                        ! Hour 1
  0,                        ! Minute 1
  1,                        ! Value Until Time 1
  24,                       ! Hour 2
  0,                        ! Minute 2
  0;                        ! Value Until Time 2

OS:Schedule:Day,
  {4f5a5bee-4f17-4df1-b32e-b7bce2ae5189},  ! Handle
  OS:Schedule:Day 6,        ! Name
  {45b42913-0e84-403f-83fd-507bb974fa73},  ! Schedule Type Limits Name
  ,                         ! Interpolate to Timestep
  6,                        ! Hour 1
  0,                        ! Minute 1
  1,                        ! Value Until Time 1
  24,                       ! Hour 2
  0,                        ! Minute 2
  0;                        ! Value Until Time 2

OS:Schedule:Day,
  {f04cf3c3-1bd3-494d-806d-6d3675232725},  ! Handle
  Medium Office Gas Equipment Winter Design Day Schedule,  ! Name
  {45b42913-0e84-403f-83fd-507bb974fa73},  ! Schedule Type Limits Name
  ,                         ! Interpolate to Timestep
  24,                       ! Hour 1
  0,                        ! Minute 1
  0;                        ! Value Until Time 1

OS:Schedule:Day,
  {ab4a1875-0604-445c-b9d2-50f0aba9087c},  ! Handle
  OS:Schedule:Day 7,        ! Name
  {45b42913-0e84-403f-83fd-507bb974fa73},  ! Schedule Type Limits Name
  ,                         ! Interpolate to Timestep
  24,                       ! Hour 1
  0,                        ! Minute 1
  0;                        ! Value Until Time 1

OS:Schedule:Rule,
  {739a6f45-c209-4eb8-b8a5-ffc55ec7e11b},  ! Handle
  Medium Office Gas Equipment Schedule Weekdays Rule,  ! Name
  {26f60b7d-aa8b-4076-b944-e0e664680275},  ! Schedule Ruleset Name
  1,                        ! Rule Order
  {623152e9-cab2-435f-bfce-fde698d1408e},  ! Day Schedule Name
  ,                         ! Apply Sunday
  Yes,                      ! Apply Monday
  Yes,                      ! Apply Tuesday
  Yes,                      ! Apply Wednesday
  Yes,                      ! Apply Thursday
  Yes;                      ! Apply Friday

OS:Schedule:Day,
  {623152e9-cab2-435f-bfce-fde698d1408e},  ! Handle
  Medium Office Gas Equipment Weekdays Schedule,  ! Name
  {45b42913-0e84-403f-83fd-507bb974fa73},  ! Schedule Type Limits Name
  ,                         ! Interpolate to Timestep