
OS:Version,
  {54baebe1-4dcb-464d-b296-31dbc4b80e2a}, !- Handle
  1.3.3;                                  !- Version Identifier

OS:Construction,
  {4f40fe37-d332-4aaf-84eb-bb1e7281a398}, !- Handle
  Slab,                                   !- Name
  ,                                       !- Surface Rendering Name
  {6a3e82df-ca61-420f-98e6-70b2a28258bb}, !- Layer 1
  {45567eb7-9cfd-4661-b7ad-8d97d47f0d2f}; !- Layer 2

OS:Material,
  {6a3e82df-ca61-420f-98e6-70b2a28258bb}, !- Handle
  MAT-CC05 8 HW CONCRETE,                 !- Name
  Rough,                                  !- Roughness
  0.2032,                                 !- Thickness {m}
  1.311,                                  !- Conductivity {W/m-K}
  2240,                                   !- Density {kg/m3}
  836.8,                                  !- Specific Heat {J/kg-K}
  0.9,                                    !- Thermal Absorptance
  0.7,                                    !- Solar Absorptance
  0.7;                                    !- Visible Absorptance

OS:Material:NoMass,
  {45567eb7-9cfd-4661-b7ad-8d97d47f0d2f}, !- Handle
  CP02 CARPET PAD,                        !- Name
  VeryRough,                              !- Roughness
  0.2165,                                 !- Thermal Resistance {m2-K/W}
  0.9,                                    !- Thermal Absorptance
  0.7,                                    !- Solar Absorptance
  0.8;                                    !- Visible Absorptance

OS:ComponentData,
  {6b8208d6-9140-4bfd-b440-5ba0081e5666}, !- Handle
  Component Data 1,                       !- Name
  {a338f879-ab92-4cf7-b0ae-556d22887912}, !- UUID
  {bac599a6-9717-4181-9ac4-96daaa4f0348}, !- Version UUID
  1399480030,                             !- Creation Timestamp
  1399480030,                             !- Version Timestamp
  {4f40fe37-d332-4aaf-84eb-bb1e7281a398}, !- Name of Object 1
  {6a3e82df-ca61-420f-98e6-70b2a28258bb}, !- Name of Object 2
  {45567eb7-9cfd-4661-b7ad-8d97d47f0d2f}; !- Name of Object 3

