
OS:Version,
  {bdea9263-b5ec-41c6-b4bc-f79eb2c32c28}, !- Handle
  1.3.2;                                  !- Version Identifier

OS:Construction,
  {d5006298-8414-4f6c-8b62-feca20d20e77}, !- Handle
  Interior Window,                        !- Name
  ,                                       !- Surface Rendering Name
  {f7dbcac7-5984-4c71-9e4c-c517bc13a84d}; !- Layer 1

OS:WindowMaterial:SimpleGlazingSystem,
  {f7dbcac7-5984-4c71-9e4c-c517bc13a84d}, !- Handle
  Simple Glazing,                         !- Name
  3.23646,                                !- U-Factor {W/m2-K}
  0.39,                                   !- Solar Heat Gain Coefficient
  0.6;                                    !- Visible Transmittance

OS:ComponentData,
  {ff86f90d-b0b8-492a-9710-51d375e6be11}, !- Handle
  Component Data 1,                       !- Name
  {a838f411-5325-4d72-b696-7b7a7951e979}, !- UUID
  {35cc2a47-a416-4e4a-a3cc-64486625f75f}, !- Version UUID
  1397863370,                             !- Creation Timestamp
  1397863370,                             !- Version Timestamp
  {d5006298-8414-4f6c-8b62-feca20d20e77}, !- Name of Object 1
  {f7dbcac7-5984-4c71-9e4c-c517bc13a84d}; !- Name of Object 2

