
OS:Version,
  {5163a31b-b51b-4ce1-9863-3158e0811360}, !- Handle
  1.3.2;                                  !- Version Identifier

OS:SimulationControl,
  {356f5dde-d0f7-4dba-af83-e7c3cb9497ec}, !- Handle
  Yes,                                    !- Do Zone Sizing Calculation
  Yes,                                    !- Do System Sizing Calculation
  ,                                       !- Do Plant Sizing Calculation
  No,                                     !- Run Simulation for Sizing Periods
  Yes;                                    !- Run Simulation for Weather File Run Periods

OS:Timestep,
  {e8e1ea24-dc1d-45fa-bbd9-f3c3a02b50e6}, !- Handle
  6;                                      !- Number of Timesteps per Hour

OS:RunPeriod,
  {a8adb64e-ae75-42af-8a77-5d706783ef21}, !- Handle
  Run Period 1,                           !- Name
  1,                                      !- Begin Month
  1,                                      !- Begin Day of Month
  12,                                     !- End Month
  31,                                     !- End Day of Month
  No,                                     !- Use Weather File Holidays and Special Days
  No,                                     !- Use Weather File Daylight Saving Period
  No,                                     !- Apply Weekend Holiday Rule
  Yes,                                    !- Use Weather File Rain Indicators
  Yes,                                    !- Use Weather File Snow Indicators
  1;                                      !- Number of Times Runperiod to be Repeated

OS:SurfaceConvectionAlgorithm:Inside,
  {dfef65ba-a51f-49a0-bcf6-27016548efa4}, !- Handle
  TARP;                                   !- Algorithm

OS:SurfaceConvectionAlgorithm:Outside,
  {a35ad954-5a3f-43ea-8b3c-91daa681ae9c}, !- Handle
  DOE-2;                                  !- Algorithm

OS:HeatBalanceAlgorithm,
  {0d745dc0-7acb-40dd-8863-680abd05ca92}, !- Handle
  ConductionTransferFunction,             !- Algorithm
  200;                                    !- Surface Temperature Upper Limit {F}

OS:ZoneAirHeatBalanceAlgorithm,
  {639f7f96-fa43-48d2-bd4c-a2975f911d34}, !- Handle
  AnalyticalSolution;                     !- Algorithm

OS:ConvergenceLimits,
  {e2c0389d-ca19-45f9-979f-2284b1f01b21}; !- Handle

OS:ShadowCalculation,
  {098378cd-213c-4b5a-8165-1709d6952679}, !- Handle
  7,                                      !- Calculation Frequency
  15000;                                  !- Maximum Figures in Shadow Overlap Calculations

OS:Site,
  {570766f2-4635-4c4d-99c2-08eacd4319eb}, !- Handle
  Site 1,                                 !- Name
  41.77,                                  !- Latitude {deg}
  -87.75,                                 !- Longitude {deg}
  -6,                                     !- Time Zone {hr}
  190,                                    !- Elevation {m}
  ;                                       !- Terrain

OS:Site:GroundTemperature:BuildingSurface,
  {7cf90162-1cc8-4a2a-bf48-93157a89492f}, !- Handle
  19.527,                                 !- January Ground Temperature {C}
  19.502,                                 !- February Ground Temperature {C}
  19.536,                                 !- March Ground Temperature {C}
  19.598,                                 !- April Ground Temperature {C}
  20.002,                                 !- May Ground Temperature {C}
  21.64,                                  !- June Ground Temperature {C}
  22.225,                                 !- July Ground Temperature {C}
  22.375,                                 !- August Ground Temperature {C}
  21.449,                                 !- September Ground Temperature {C}
  20.121,                                 !- October Ground Temperature {C}
  19.802,                                 !- November Ground Temperature {C}
  19.633;                                 !- December Ground Temperature {C}

OS:Site:WaterMainsTemperature,
  {5794d19f-75fd-44bb-8a57-3d7b870a16f8}, !- Handle
  Correlation,                            !- Calculation Method
  ,                                       !- Temperature Schedule Name
  9.69,                                   !- Annual Average Outdoor Air Temperature {C}
  28.1;                                   !- Maximum Difference In Monthly Average Outdoor Air Temperatures {deltaC}

OS:SizingPeriod:DesignDay,
  {38c181f7-c66e-456b-bd8f-0a6eb28fce07}, !- Handle
  Sizing Period Design Day 1,             !- Name
  -20.6,                                  !- Maximum Dry-Bulb Temperature {C}
  0,                                      !- Daily Dry-Bulb Temperature Range {deltaC}
  -20.6,                                  !- Humidity Indicating Conditions at Maximum Dry-Bulb {BasedOnField A3}
  99063,                                  !- Barometric Pressure {Pa}
  4.9,                                    !- Wind Speed {m/s}
  270,                                    !- Wind Direction {deg}
  0,                                      !- Sky Clearness
  0,                                      !- Rain Indicator
  0,                                      !- Snow Indicator
  21,                                     !- Day of Month
  1,                                      !- Month
  WinterDesignDay,                        !- Day Type
  0,                                      !- Daylight Saving Time Indicator
  WetBulb,                                !- Humidity Indicating Type
  ,                                       !- Humidity Indicating Day Schedule Name
  DefaultMultipliers,                     !- Dry-Bulb Temperature Range Modifier Type
  ,                                       !- Dry-Bulb Temperature Range Modifier Schedule Name
  AshraeClearSky;                         !- Solar Model Indicator

OS:SizingPeriod:DesignDay,
  {f6999d8d-15fa-4887-bb70-aa9ca967f653}, !- Handle
  Sizing Period Design Day 2,             !- Name
  33.2,                                   !- Maximum Dry-Bulb Temperature {C}
  10.7,                                   !- Daily Dry-Bulb Temperature Range {deltaC}
  23.8,                                   !- Humidity Indicating Conditions at Maximum Dry-Bulb {BasedOnField A3}
  99063,                                  !- Barometric Pressure {Pa}
  5.3,                                    !- Wind Speed {m/s}
  230,                                    !- Wind Direction {deg}
  1,                                      !- Sky Clearness
  0,                                      !- Rain Indicator
  0,                                      !- Snow Indicator
  21,                                     !- Day of Month
  7,                                      !- Month
  SummerDesignDay,                        !- Day Type
  0,                                      !- Daylight Saving Time Indicator
  WetBulb,                                !- Humidity Indicating Type
  ,                                       !- Humidity Indicating Day Schedule Name
  DefaultMultipliers,                     !- Dry-Bulb Temperature Range Modifier Type
  ,                                       !- Dry-Bulb Temperature Range Modifier Schedule Name
  AshraeClearSky;                         !- Solar Model Indicator

OS:ScheduleTypeLimits,
  {8c76c011-d721-485c-b533-6076330c2d71}, !- Handle
  Temperature,                            !- Name
  -60,                                    !- Lower Limit Value {BasedOnField A4}
  200,                                    !- Upper Limit Value {BasedOnField A4}
  CONTINUOUS,                             !- Numeric Type
  Temperature;                            !- Unit Type

OS:DefaultScheduleSet,
  {03cf3788-9252-4cae-b46e-8e4fab2d10c7}, !- Handle
  Default Schedules,                      !- Name
  ,                                       !- Hours of Operation Schedule Name
  {17ae5924-c92d-4c4a-8851-9ba7960adab8}, !- Number of People Schedule Name
  {ca047a30-d5a4-4a92-b1b4-395879a641ba}, !- People Activity Level Schedule Name
  {c3b77ad4-f69e-4040-ba7b-f7885a069638}, !- Lighting Schedule Name
  {32559d1c-b825-4d47-bb70-8e56341905f0}, !- Electric Equipment Schedule Name
  {2345d546-cbf7-4a18-813e-88922d3bb2bf}, !- Gas Equipment Schedule Name
  {4402758b-fc00-4ae9-8438-2b9e40980d19}, !- Hot Water Equipment Schedule Name
  {e5f06fb6-bf79-4a72-a042-66f5bb3c82e3}, !- Infiltration Schedule Name
  ,                                       !- Steam Equipment Schedule Name
  ;                                       !- Other Equipment Schedule Name

OS:Schedule:Ruleset,
  {17ae5924-c92d-4c4a-8851-9ba7960adab8}, !- Handle
  Medium Office Number of People Schedule, !- Name
  {82d5d738-9f89-4ad6-a30a-486646a487bf}, !- Schedule Type Limits Name
  {cf3411bf-9531-4cc5-81c1-e7a3cccb4574}, !- Default Day Schedule Name
  {ee8559db-c79e-46e2-9d2a-24279bb19d8f}; !- Summer Design Day Schedule Name

OS:Schedule:Day,
  {cf3411bf-9531-4cc5-81c1-e7a3cccb4574}, !- Handle
  Medium Office Number of People All Other Days Schedule, !- Name
  {82d5d738-9f89-4ad6-a30a-486646a487bf}, !- Schedule Type Limits Name
  ,                                       !- Interpolate to Timestep
  24,                                     !- Hour 1
  0,                                      !- Minute 1
  0;                                      !- Value Until Time 1

OS:Schedule:Day,
  {8486186c-f6fe-47e7-bb39-a0bbe2670127}, !- Handle
  Medium Office Number of People Summer Design Day Schedule, !- Name
  ,                                       !- Schedule Type Limits Name
  ,                                       !- Interpolate to Timestep
  6,                                      !- Hour 1
  0,                                      !- Minute 1
  0,                                      !- Value Until Time 1
  22,                                     !- Hour 2
  0,                                      !- Minute 2
  1,                                      !- Value Until Time 2
  24,                                     !- Hour 3
  0,                                      !- Minute 3
  0.05;                                   !- Value Until Time 3

OS:Schedule:Day,
  {ee8559db-c79e-46e2-9d2a-24279bb19d8f}, !- Handle
  Medium Office Number of People Summer Design Day Schedule 1, !- Name
  {82d5d738-9f89-4ad6-a30a-486646a487bf}, !- Schedule Type Limits Name
  ,                                       !- Interpolate to Timestep
  6,                                      !- Hour 1
  0,                                      !- Minute 1
  0,                                      !- Value Until Time 1
  22,                                     !- Hour 2
  0,                                      !- Minute 2
  1,                                      !- Value Until Time 2
  24,                                     !- Hour 3
  0,                                      !- Minute 3
  0.05;                                   !- Value Until Time 3

OS:Schedule:Rule,
  {25c0c940-26ad-4521-878f-337cc3387424}, !- Handle
  Medium Office Number of People Schedule Weekdays Rule, !- Name
  {17ae5924-c92d-4c4a-8851-9ba7960adab8}, !- Schedule Ruleset Name
  1,                                      !- Rule Order
  {b8310288-c6c6-4269-84c9-e5b0e8025dd9}, !- Day Schedule Name
  ,                                       !- Apply Sunday
  Yes,                                    !- Apply Monday
  Yes,                                    !- Apply Tuesday
  Yes,                                    !- Apply Wednesday
  Yes,                                    !- Apply Thursday
  Yes;                                    !- Apply Friday

OS:Schedule:Day,
  {b8310288-c6c6-4269-84c9-e5b0e8025dd9}, !- Handle
  Medium Office Number of People Weekdays Schedule, !- Name
  {82d5d738-9f89-4ad6-a30a-486646a487bf}, !- Schedule Type Limits Name
  ,                                       !- Interpolate to Timestep
  6,                                      !- Hour 1
  0,                                      !- Minute 1
  0,                                      !- Value Until Time 1
  7,                                      !- Hour 2
  0,                                      !- Minute 2
  0.1,                                    !- Value Until Time 2
  8,                                      !- Hour 3
  0,                                      !- Minute 3
  0.2,                                    !- Value Until Time 3
  12,                                     !- Hour 4
  0,                                      !- Minute 4
  0.95,                                   !- Value Until Time 4
  13,                                     !- Hour 5
  0,                                      !- Minute 5
  0.5,                                    !- Value Until Time 5
  17,                                     !- Hour 6
  0,                                      !- Minute 6
  0.95,                                   !- Value Until Time 6
  18,                                     !- Hour 7
  0,                                      !- Minute 7
  0.7,                                    !- Value Until Time 7
  20,                                     !- Hour 8
  0,                                      !- Minute 8
  0.4,                                    !- Value Until Time 8
  22,                                     !- Hour 9
  0,                                      !- Minute 9
  0.1,                                    !- Value Until Time 9
  24,                                     !- Hour 10
  0,                                      !- Minute 10
  0.05;                                   !- Value Until Time 10

OS:Schedule:Rule,
  {a563f40e-e55c-4a3d-a077-9ded78ea20de}, !- Handle
  Medium Office Number of People Schedule Saturday Rule, !- Name
  {17ae5924-c92d-4c4a-8851-9ba7960adab8}, !- Schedule Ruleset Name
  0,                                      !- Rule Order
  {2b84eb73-8746-4fb9-b7cf-8befaead3ca7}, !- Day Schedule Name
  ,                                       !- Apply Sunday
  ,                                       !- Apply Monday
  ,                                       !- Apply Tuesday
  ,                                       !- Apply Wednesday
  ,                                       !- Apply Thursday
  ,                                       !- Apply Friday
  Yes;                                    !- Apply Saturday

OS:Schedule:Day,
  {2b84eb73-8746-4fb9-b7cf-8befaead3ca7}, !- Handle
  Medium Office Number of People Saturday Schedule, !- Name
  {82d5d738-9f89-4ad6-a30a-486646a487bf}, !- Schedule Type Limits Name
  ,                                       !- Interpolate to Timestep
  6,                                      !- Hour 1
  0,                                      !- Minute 1
  0,                                      !- Value Until Time 1
  8,                                      !- Hour 2
  0,                                      !- Minute 2
  0.1,                                    !- Value Until Time 2
  14,                                     !- Hour 3
  0,                                      !- Minute 3
  0.5,                                    !- Value Until Time 3
  17,                                     !- Hour 4
  0,                                      !- Minute 4
  0.1,                                    !- Value Until Time 4
  24,                                     !- Hour 5
  0,                                      !- Minute 5
  0;                                      !- Value Until Time 5

OS:ScheduleTypeLimits,
  {82d5d738-9f89-4ad6-a30a-486646a487bf}, !- Handle
  Fractional,                             !- Name
  0,                                      !- Lower Limit Value {BasedOnField A4}
  1,                                      !- Upper Limit Value {BasedOnField A4}
  Continuous;                             !- Numeric Type

OS:Schedule:Ruleset,
  {ca047a30-d5a4-4a92-b1b4-395879a641ba}, !- Handle
  Medium Office People Activity Level Schedule, !- Name
  {8b92d1f1-059d-46b1-90bf-0ef2551be8c4}, !- Schedule Type Limits Name
  {0801a764-acad-4c82-aeec-e33c25df267c}; !- Default Day Schedule Name

OS:Schedule:Day,
  {0801a764-acad-4c82-aeec-e33c25df267c}, !- Handle
  Medium Office People Activity Level All Days Schedule, !- Name
  {8b92d1f1-059d-46b1-90bf-0ef2551be8c4}, !- Schedule Type Limits Name
  ,                                       !- Interpolate to Timestep
  24,                                     !- Hour 1
  0,                                      !- Minute 1
  120;                                    !- Value Until Time 1

OS:ScheduleTypeLimits,
  {8b92d1f1-059d-46b1-90bf-0ef2551be8c4}, !- Handle
  ActivityLevel,                          !- Name
  0,                                      !- Lower Limit Value {BasedOnField A4}
  ,                                       !- Upper Limit Value {BasedOnField A4}
  Continuous,                             !- Numeric Type
  ActivityLevel;                          !- Unit Type

OS:Schedule:Ruleset,
  {c3b77ad4-f69e-4040-ba7b-f7885a069638}, !- Handle
  Medium Office Lighting Schedule,        !- Name
  {82d5d738-9f89-4ad6-a30a-486646a487bf}, !- Schedule Type Limits Name
  {ade8b393-b6cb-45b5-904f-3dc10cbb8851}, !- Default Day Schedule Name
  {2185e71d-0533-42a7-b866-b921210230bb}, !- Summer Design Day Schedule Name
  {8382c2d1-d17b-425c-9516-095957689be5}; !- Winter Design Day Schedule Name

OS:Schedule:Day,
  {ade8b393-b6cb-45b5-904f-3dc10cbb8851}, !- Handle
  Medium Office Lighting All Other Days Schedule, !- Name
  {82d5d738-9f89-4ad6-a30a-486646a487bf}, !- Schedule Type Limits Name
  ,                                       !- Interpolate to Timestep
  24,                                     !- Hour 1
  0,                                      !- Minute 1
  0.05;                                   !- Value Until Time 1

OS:Schedule:Day,
  {df2e181d-38bd-432a-804e-e5119bd34b22}, !- Handle
  Medium Office Lighting Summer Design Day Schedule, !- Name
  ,                                       !- Schedule Type Limits Name
  ,                                       !- Interpolate to Timestep
  6,                                      !- Hour 1
  0,                                      !- Minute 1
  1,                                      !- Value Until Time 1
  24,                                     !- Hour 2
  0,                                      !- Minute 2
  0;                                      !- Value Until Time 2

OS:Schedule:Day,
  {2185e71d-0533-42a7-b866-b921210230bb}, !- Handle
  Medium Office Lighting Summer Design Day Schedule 1, !- Name
  {82d5d738-9f89-4ad6-a30a-486646a487bf}, !- Schedule Type Limits Name
  ,                                       !- Interpolate to Timestep
  6,                                      !- Hour 1
  0,                                      !- Minute 1
  1,                                      !- Value Until Time 1
  24,                                     !- Hour 2
  0,                                      !- Minute 2
  0;                                      !- Value Until Time 2

OS:Schedule:Day,
  {932ad556-62ac-406e-8d80-90fa890b6d10}, !- Handle
  Medium Office Lighting Winter Design Day Schedule, !- Name
  ,                                       !- Schedule Type Limits Name
  ,                                       !- Interpolate to Timestep
  24,                                     !- Hour 1
  0,                                      !- Minute 1
  0;                                      !- Value Until Time 1

OS:Schedule:Day,
  {8382c2d1-d17b-425c-9516-095957689be5}, !- Handle
  Medium Office Lighting Winter Design Day Schedule 1, !- Name
  {82d5d738-9f89-4ad6-a30a-486646a487bf}, !- Schedule Type Limits Name
  ,                                       !- Interpolate to Timestep
  24,                                     !- Hour 1
  0,                                      !- Minute 1
  0;                                      !- Value Until Time 1

OS:Schedule:Rule,
  {3c28bd81-2ce4-4bae-94e8-46c072665132}, !- Handle
  Medium Office Lighting Schedule Weekdays Rule, !- Name
  {c3b77ad4-f69e-4040-ba7b-f7885a069638}, !- Schedule Ruleset Name
  1,                                      !- Rule Order
  {1c768cd0-f7f4-4d1c-964b-ec794d63310e}, !- Day Schedule Name
  ,                                       !- Apply Sunday
  Yes,                                    !- Apply Monday
  Yes,                                    !- Apply Tuesday
  Yes,                                    !- Apply Wednesday
  Yes,                                    !- Apply Thursday
  Yes;                                    !- Apply Friday

OS:Schedule:Day,
  {1c768cd0-f7f4-4d1c-964b-ec794d63310e}, !- Handle
  Medium Office Lighting Weekdays Schedule, !- Name
  {82d5d738-9f89-4ad6-a30a-486646a487bf}, !- Schedule Type Limits Name
  ,                                       !- Interpolate to Timestep
  5,                                      !- Hour 1
  0,                                      !- Minute 1
  0.05,                                   !- Value Until Time 1
  7,                                      !- Hour 2
  0,                                      !- Minute 2
  0.1,                                    !- Value Until Time 2
  8,                                      !- Hour 3
  0,                                      !- Minute 3
  0.3,                                    !- Value Until Time 3
  17,                                     !- Hour 4
  0,                                      !- Minute 4
  0.9,                                    !- Value Until Time 4
  18,                                     !- Hour 5
  0,                                      !- Minute 5
  0.7,                                    !- Value Until Time 5
  20,                                     !- Hour 6
  0,                                      !- Minute 6
  0.5,                                    !- Value Until Time 6
  22,                                     !- Hour 7
  0,                                      !- Minute 7
  0.3,                                    !- Value Until Time 7
  23,                                     !- Hour 8
  0,                                      !- Minute 8
  0.1,                                    !- Value Until Time 8
  24,                                     !- Hour 9
  0,                                      !- Minute 9
  0.05;                                   !- Value Until Time 9

OS:Schedule:Rule,
  {caa52b48-f18e-475b-9851-d3ec8d3092af}, !- Handle
  Medium Office Lighting Schedule Saturday Rule, !- Name
  {c3b77ad4-f69e-4040-ba7b-f7885a069638}, !- Schedule Ruleset Name
  0,                                      !- Rule Order
  {cee82a42-3aaa-42a9-a3f1-ecefa96cd1a4}, !- Day Schedule Name
  ,                                       !- Apply Sunday
  ,                                       !- Apply Monday
  ,                                       !- Apply Tuesday
  ,                                       !- Apply Wednesday
  ,                                       !- Apply Thursday
  ,                                       !- Apply Friday
  Yes;                                    !- Apply Saturday

OS:Schedule:Day,
  {cee82a42-3aaa-42a9-a3f1-ecefa96cd1a4}, !- Handle
  Medium Office Lighting Saturday Schedule, !- Name
  {82d5d738-9f89-4ad6-a30a-486646a487bf}, !- Schedule Type Limits Name
  ,                                       !- Interpolate to Timestep
  6,                                      !- Hour 1
  0,                                      !- Minute 1
  0.05,                                   !- Value Until Time 1
  8,                                      !- Hour 2
  0,                                      !- Minute 2
  0.1,                                    !- Value Until Time 2
  14,                                     !- Hour 3
  0,                                      !- Minute 3
  0.5,                                    !- Value Until Time 3
  17,                                     !- Hour 4
  0,                                      !- Minute 4
  0.15,                                   !- Value Until Time 4
  24,                                     !- Hour 5
  0,                                      !- Minute 5
  0.05;                                   !- Value Until Time 5

OS:Schedule:Ruleset,
  {32559d1c-b825-4d47-bb70-8e56341905f0}, !- Handle
  Medium Office Electric Equipment Schedule, !- Name
  {82d5d738-9f89-4ad6-a30a-486646a487bf}, !- Schedule Type Limits Name
  {38a6a503-d558-4fde-8689-afb40fce791c}, !- Default Day Schedule Name
  {fbd40578-7410-4927-8d59-b025fe09d075}, !- Summer Design Day Schedule Name
  {bdbd8d28-0ba8-465d-87cd-ba0e10f5d871}; !- Winter Design Day Schedule Name

OS:Schedule:Day,
  {38a6a503-d558-4fde-8689-afb40fce791c}, !- Handle
  Medium Office Electric Equipment All Other Days Schedule, !- Name
  {82d5d738-9f89-4ad6-a30a-486646a487bf}, !- Schedule Type Limits Name
  ,                                       !- Interpolate to Timestep
  24,                                     !- Hour 1
  0,                                      !- Minute 1
  0.3;                                    !- Value Until Time 1

OS:Schedule:Day,
  {8bd4ca11-430d-410a-925d-9bbb30522c19}, !- Handle
  Medium Office Electric Equipment Summer Design Day Schedule, !- Name
  ,                                       !- Schedule Type Limits Name
  ,                                       !- Interpolate to Timestep
  6,                                      !- Hour 1
  0,                                      !- Minute 1
  1,                                      !- Value Until Time 1
  24,                                     !- Hour 2
  0,                                      !- Minute 2
  0;                                      !- Value Until Time 2

OS:Schedule:Day,
  {fbd40578-7410-4927-8d59-b025fe09d075}, !- Handle
  Medium Office Electric Equipment Summer Design Day Schedule 1, !- Name
  {82d5d738-9f89-4ad6-a30a-486646a487bf}, !- Schedule Type Limits Name
  ,                                       !- Interpolate to Timestep
  6,                                      !- Hour 1
  0,                                      !- Minute 1
  1,                                      !- Value Until Time 1
  24,                                     !- Hour 2
  0,                                      !- Minute 2
  0;                                      !- Value Until Time 2

OS:Schedule:Day,
  {a073ac91-b661-47bc-b344-92fba04e52e0}, !- Handle
  Medium Office Electric Equipment Winter Design Day Schedule, !- Name
  ,                                       !- Schedule Type Limits Name
  ,                                       !- Interpolate to Timestep
  24,                                     !- Hour 1
  0,                                      !- Minute 1
  0;                                      !- Value Until Time 1

OS:Schedule:Day,
  {bdbd8d28-0ba8-465d-87cd-ba0e10f5d871}, !- Handle
  Medium Office Electric Equipment Winter Design Day Schedule 1, !- Name
  {82d5d738-9f89-4ad6-a30a-486646a487bf}, !- Schedule Type Limits Name
  ,                                       !- Interpolate to Timestep
  24,                                     !- Hour 1
  0,                                      !- Minute 1
  0;                                      !- Value Until Time 1

OS:Schedule:Rule,
  {137450b2-3d01-412d-8bb5-7ef2f27709c8}, !- Handle
  Medium Office Electric Equipment Schedule Weekdays Rule, !- Name
  {32559d1c-b825-4d47-bb70-8e56341905f0}, !- Schedule Ruleset Name
  1,                                      !- Rule Order
  {b2d5d3cf-2efa-4c68-b1e8-d81af7bc09da}, !- Day Schedule Name
  ,                                       !- Apply Sunday
  Yes,                                    !- Apply Monday
  Yes,                                    !- Apply Tuesday
  Yes,                                    !- Apply Wednesday
  Yes,                                    !- Apply Thursday
  Yes;                                    !- Apply Friday

OS:Schedule:Day,
  {b2d5d3cf-2efa-4c68-b1e8-d81af7bc09da}, !- Handle
  Medium Office Electric Equipment Weekdays Schedule, !- Name
  {82d5d738-9f89-4ad6-a30a-486646a487bf}, !- Schedule Type Limits Name
  ,                                       !- Interpolate to Timestep
  8,                                      !- Hour 1
  0,                                      !- Minute 1
  0.4,                                    !- Value Until Time 1
  12,                                     !- Hour 2
  0,                                      !- Minute 2
  0.9,                                    !- Value Until Time 2
  13,                                     !- Hour 3
  0,                                      !- Minute 3
  0.8,                                    !- Value Until Time 3
  17,                                     !- Hour 4
  0,                                      !- Minute 4
  0.9,                                    !- Value Until Time 4
  18,                                     !- Hour 5
  0,                                      !- Minute 5
  0.8,                                    !- Value Until Time 5
  20,                                     !- Hour 6
  0,                                      !- Minute 6
  0.6,                                    !- Value Until Time 6
  22,                                     !- Hour 7
  0,                                      !- Minute 7
  0.5,                                    !- Value Until Time 7
  24,                                     !- Hour 8
  0,                                      !- Minute 8
  0.4;                                    !- Value Until Time 8

OS:Schedule:Rule,
  {24965517-7268-4365-a27e-f0f65d0d1f31}, !- Handle
  Medium Office Electric Equipment Schedule Saturday Rule, !- Name
  {32559d1c-b825-4d47-bb70-8e56341905f0}, !- Schedule Ruleset Name
  0,                                      !- Rule Order
  {febb2adf-8c0e-4818-af4f-a5560cba8d43}, !- Day Schedule Name
  ,                                       !- Apply Sunday
  ,                                       !- Apply Monday
  ,                                       !- Apply Tuesday
  ,                                       !- Apply Wednesday