
OS:Version,
  {cbd3400e-8d4b-4349-b0a3-fbcc37f746b2},  ! Handle
  0.8.2;                    ! Version Identifier

OS:SimulationControl,
  {b13ddc9b-3943-4a6b-a9e6-956e25187442},  ! Handle
  Yes,                      ! Do Zone Sizing Calculation
  Yes,                      ! Do System Sizing Calculation
  ,                         ! Do Plant Sizing Calculation
  No,                       ! Run Simulation for Sizing Periods
  Yes;                      ! Run Simulation for Weather File Run Periods

OS:Timestep,
  {65815315-98f3-4b23-ae4c-26033c14eb5f},  ! Handle
  6;                        ! Number of Timesteps per Hour

OS:RunPeriod,
  {df1a4d7d-7c6c-46d5-818c-4b3832d49e6e},  ! Handle
  OS:RunPeriod 1,           ! Name
  1,                        ! Begin Month
  1,                        ! Begin Day of Month
  12,                       ! End Month
  31,                       ! End Day of Month
  No,                       ! Use Weather File Holidays and Special Days
  No,                       ! Use Weather File Daylight Saving Period
  No,                       ! Apply Weekend Holiday Rule
  Yes,                      ! Use Weather File Rain Indicators
  Yes,                      ! Use Weather File Snow Indicators
  1;                        ! Number of Times Runperiod to be Repeated

OS:SurfaceConvectionAlgorithm:Inside,
  {20850639-4cc8-4b91-a536-54c33c0efd8c},  ! Handle
  TARP;                     ! Algorithm

OS:SurfaceConvectionAlgorithm:Outside,
  {1602cd4e-2516-46f3-965c-e645c3db57c0},  ! Handle
  DOE-2;                    ! Algorithm

OS:HeatBalanceAlgorithm,
  {dfde306b-dd89-4413-81ae-b5c927021bbf},  ! Handle
  ConductionTransferFunction,  ! Algorithm
  200;                      ! Surface Temperature Upper Limit {F}

OS:ZoneAirHeatBalanceAlgorithm,
  {93471406-9de0-48be-9ae3-4f748a4427b2},  ! Handle
  AnalyticalSolution;       ! Algorithm

OS:ConvergenceLimits,
  {85d60c54-7847-495d-942e-1340a04bfefd};  ! Handle

OS:ShadowCalculation,
  {9b706f66-fc3c-49dc-a620-6873444d6b45},  ! Handle
  7,                        ! Calculation Frequency
  15000;                    ! Maximum Figures in Shadow Overlap Calculations

OS:Site,
  {88cecdfb-0f83-488b-b2c3-b5ba443b52cd},  ! Handle
  OS:Site 1,                ! Name
  41.77,                    ! Latitude {deg}
  -87.75,                   ! Longitude {deg}
  -6,                       ! Time Zone {hr}
  190,                      ! Elevation {m}
  ;                         ! Terrain

OS:Site:GroundTemperature:BuildingSurface,
  {ef5c0bce-f924-42ec-a750-47f9a09016e5},  ! Handle
  19.527,                   ! January Ground Temperature {C}
  19.502,                   ! February Ground Temperature {C}
  19.536,                   ! March Ground Temperature {C}
  19.598,                   ! April Ground Temperature {C}
  20.002,                   ! May Ground Temperature {C}
  21.64,                    ! June Ground Temperature {C}
  22.225,                   ! July Ground Temperature {C}
  22.375,                   ! August Ground Temperature {C}
  21.449,                   ! September Ground Temperature {C}
  20.121,                   ! October Ground Temperature {C}
  19.802,                   ! November Ground Temperature {C}
  19.633;                   ! December Ground Temperature {C}

OS:Site:WaterMainsTemperature,
  {6cff5a18-ab87-41d2-a47e-76f1211a0235},  ! Handle
  Correlation,              ! Calculation Method
  ,                         ! Temperature Schedule Name
  9.69,                     ! Annual Average Outdoor Air Temperature {C}
  28.1;                     ! Maximum Difference In Monthly Average Outdoor Air Temperatures {deltaC}

OS:SizingPeriod:DesignDay,
  {269c953f-1978-40f3-bf62-ccdd0698f215},  ! Handle
  OS:SizingPeriod:DesignDay 1,  ! Name
  -20.6,                    ! Maximum Dry-Bulb Temperature {C}
  0,                        ! Daily Dry-Bulb Temperature Range {deltaC}
  -20.6,                    ! Humidity Indicating Conditions at Maximum Dry-Bulb {BasedOnField A3}
  99063,                    ! Barometric Pressure {Pa}
  4.9,                      ! Wind Speed {m/s}
  270,                      ! Wind Direction {deg}
  0,                        ! Sky Clearness
  0,                        ! Rain Indicator
  0,                        ! Snow Indicator
  21,                       ! Day of Month
  1,                        ! Month
  WinterDesignDay,          ! Day Type
  0,                        ! Daylight Saving Time Indicator
  WetBulb,                  ! Humidity Indicating Type
  ,                         ! Humidity Indicating Day Schedule Name
  DefaultMultipliers,       ! Dry-Bulb Temperature Range Modifier Type
  ,                         ! Dry-Bulb Temperature Range Modifier Schedule Name
  AshraeClearSky;           ! Solar Model Indicator

OS:SizingPeriod:DesignDay,
  {fc4506d9-95fe-4420-9c4d-ea251d37d02a},  ! Handle
  OS:SizingPeriod:DesignDay 2,  ! Name
  33.2,                     ! Maximum Dry-Bulb Temperature {C}
  10.7,                     ! Daily Dry-Bulb Temperature Range {deltaC}
  23.8,                     ! Humidity Indicating Conditions at Maximum Dry-Bulb {BasedOnField A3}
  99063,                    ! Barometric Pressure {Pa}
  5.3,                      ! Wind Speed {m/s}
  230,                      ! Wind Direction {deg}
  1,                        ! Sky Clearness
  0,                        ! Rain Indicator
  0,                        ! Snow Indicator
  21,                       ! Day of Month
  7,                        ! Month
  SummerDesignDay,          ! Day Type
  0,                        ! Daylight Saving Time Indicator
  WetBulb,                  ! Humidity Indicating Type
  ,                         ! Humidity Indicating Day Schedule Name
  DefaultMultipliers,       ! Dry-Bulb Temperature Range Modifier Type
  ,                         ! Dry-Bulb Temperature Range Modifier Schedule Name
  AshraeClearSky;           ! Solar Model Indicator

OS:ScheduleTypeLimits,
  {0c9b3dac-6511-4bab-8271-b9a189e78d36},  ! Handle
  Fraction,                 ! Name
  0,                        ! Lower Limit Value {BasedOnField A3}
  1,                        ! Upper Limit Value {BasedOnField A3}
  CONTINUOUS;               ! Numeric Type

OS:ScheduleTypeLimits,
  {bbfc5971-db34-4cb2-9af8-cedd6d9998a7},  ! Handle
  Any Number;               ! Name

OS:ScheduleTypeLimits,
  {2051b8f9-08e9-46b3-89b3-df731281b252},  ! Handle
  On/Off,                   ! Name
  0,                        ! Lower Limit Value {BasedOnField A3}
  1,                        ! Upper Limit Value {BasedOnField A3}
  DISCRETE;                 ! Numeric Type

OS:ScheduleTypeLimits,
  {ef28b38c-153f-47e3-83f5-54e7c1dd4364},  ! Handle
  Control Type,             ! Name
  0,                        ! Lower Limit Value {BasedOnField A3}
  4,                        ! Upper Limit Value {BasedOnField A3}
  DISCRETE;                 ! Numeric Type

OS:ScheduleTypeLimits,
  {b126c0b9-ace6-4dff-9cec-ed29f40c9075},  ! Handle
  Temperature,              ! Name
  -60,                      ! Lower Limit Value {BasedOnField A3}
  200,                      ! Upper Limit Value {BasedOnField A3}
  CONTINUOUS;               ! Numeric Type

OS:DefaultScheduleSet,
  {cc6f8eff-93c3-4e91-abe3-4a51cf23d3b0},  ! Handle
  Default Schedules,        ! Name
  ,                         ! Hours of Operation Schedule Name
  {32c252ab-2353-4ec7-be4c-31e7d3a79732},  ! Number of People Schedule Name
  {6d073087-aca7-426b-83fb-7d22723d9381},  ! People Activity Level Schedule Name
  {e3b1ed46-4cd6-41d4-bebf-a4ca44848f89},  ! Lighting Schedule Name
  {fe17623a-442e-43d1-888a-7b73e61e957e},  ! Electric Equipment Schedule Name
  {984057dd-70c5-43c6-8ce7-1046da89a4fe},  ! Gas Equipment Schedule Name
  {0569dd5c-c47e-4c86-b957-ae7236bb8233},  ! Hot Water Equipment Schedule Name
  {18ccd12f-1755-43bc-8498-c0ef561be82c},  ! Infiltration Schedule Name
  ,                         ! Steam Equipment Schedule Name
  ;                         ! Other Equipment Schedule Name

OS:Schedule:Ruleset,
  {32c252ab-2353-4ec7-be4c-31e7d3a79732},  ! Handle
  Medium Office Number of People Schedule,  ! Name
  ,                         ! Schedule Type Limits Name
  {f80b3855-e5da-405c-84d6-5843c4971585},  ! Default Day Schedule Name
  {ae028a3d-96a1-4c4c-add5-5c5c896e542c};  ! Summer Design Day Schedule Name

OS:Schedule:Day,
  {f80b3855-e5da-405c-84d6-5843c4971585},  ! Handle
  Medium Office Number of People All Other Days Schedule,  ! Name
  {0c9b3dac-6511-4bab-8271-b9a189e78d36},  ! Schedule Type Limits Name
  ,                         ! Interpolate to Timestep
  24,                       ! Hour 1
  0,                        ! Minute 1
  0;                        ! Value Until Time 1

OS:Schedule:Day,
  {d0c44c82-b753-4c09-9211-3a12fda23726},  ! Handle
  Medium Office Number of People Summer Design Day Schedule,  ! Name
  {0c9b3dac-6511-4bab-8271-b9a189e78d36},  ! Schedule Type Limits Name
  ,                         ! Interpolate to Timestep
  6,                        ! Hour 1
  0,                        ! Minute 1
  0,                        ! Value Until Time 1
  22,                       ! Hour 2
  0,                        ! Minute 2
  1,                        ! Value Until Time 2
  24,                       ! Hour 3
  0,                        ! Minute 3
  0.05;                     ! Value Until Time 3

OS:Schedule:Day,
  {ae028a3d-96a1-4c4c-add5-5c5c896e542c},  ! Handle
  OS:Schedule:Day 1,        ! Name
  {0c9b3dac-6511-4bab-8271-b9a189e78d36},  ! Schedule Type Limits Name
  ,                         ! Interpolate to Timestep
  6,                        ! Hour 1
  0,                        ! Minute 1
  0,                        ! Value Until Time 1
  22,                       ! Hour 2
  0,                        ! Minute 2
  1,                        ! Value Until Time 2
  24,                       ! Hour 3
  0,                        ! Minute 3
  0.05;                     ! Value Until Time 3

OS:Schedule:Rule,
  {5bc52b17-a7cd-403b-a0d9-ba3fcadc616b},  ! Handle
  Medium Office Number of People Schedule Weekdays Rule,  ! Name
  {32c252ab-2353-4ec7-be4c-31e7d3a79732},  ! Schedule Ruleset Name
  1,                        ! Rule Order
  {c57e1e87-fcd3-439b-83ee-9fd9d8191e0b},  ! Day Schedule Name
  ,                         ! Apply Sunday
  Yes,                      ! Apply Monday
  Yes,                      ! Apply Tuesday
  Yes,                      ! Apply Wednesday
  Yes,                      ! Apply Thursday
  Yes;                      ! Apply Friday

OS:Schedule:Day,
  {c57e1e87-fcd3-439b-83ee-9fd9d8191e0b},  ! Handle
  Medium Office Number of People Weekdays Schedule,  ! Name
  {0c9b3dac-6511-4bab-8271-b9a189e78d36},  ! Schedule Type Limits Name
  ,                         ! Interpolate to Timestep
  6,                        ! Hour 1
  0,                        ! Minute 1
  0,                        ! Value Until Time 1
  7,                        ! Hour 2
  0,                        ! Minute 2
  0.1,                      ! Value Until Time 2
  8,                        ! Hour 3
  0,                        ! Minute 3
  0.2,                      ! Value Until Time 3
  12,                       ! Hour 4
  0,                        ! Minute 4
  0.95,                     ! Value Until Time 4
  13,                       ! Hour 5
  0,                        ! Minute 5
  0.5,                      ! Value Until Time 5
  17,                       ! Hour 6
  0,                        ! Minute 6
  0.95,                     ! Value Until Time 6
  18,                       ! Hour 7
  0,                        ! Minute 7
  0.7,                      ! Value Until Time 7
  20,                       ! Hour 8
  0,                        ! Minute 8
  0.4,                      ! Value Until Time 8
  22,                       ! Hour 9
  0,                        ! Minute 9
  0.1,                      ! Value Until Time 9
  24,                       ! Hour 10
  0,                        ! Minute 10
  0.05;                     ! Value Until Time 10

OS:Schedule:Rule,
  {d4bdab13-746e-49ab-930a-5a6a99ebbfad},  ! Handle
  Medium Office Number of People Schedule Saturday Rule,  ! Name
  {32c252ab-2353-4ec7-be4c-31e7d3a79732},  ! Schedule Ruleset Name
  0,                        ! Rule Order
  {f4699b6b-4653-4cbc-9799-6de8647fed98},  ! Day Schedule Name
  ,                         ! Apply Sunday
  ,                         ! Apply Monday
  ,                         ! Apply Tuesday
  ,                         ! Apply Wednesday
  ,                         ! Apply Thursday
  ,                         ! Apply Friday
  Yes;                      ! Apply Saturday

OS:Schedule:Day,
  {f4699b6b-4653-4cbc-9799-6de8647fed98},  ! Handle
  Medium Office Number of People Saturday Schedule,  ! Name
  {0c9b3dac-6511-4bab-8271-b9a189e78d36},  ! Schedule Type Limits Name
  ,                         ! Interpolate to Timestep
  6,                        ! Hour 1
  0,                        ! Minute 1
  0,                        ! Value Until Time 1
  8,                        ! Hour 2
  0,                        ! Minute 2
  0.1,                      ! Value Until Time 2
  14,                       ! Hour 3
  0,                        ! Minute 3
  0.5,                      ! Value Until Time 3
  17,                       ! Hour 4
  0,                        ! Minute 4
  0.1,                      ! Value Until Time 4
  24,                       ! Hour 5
  0,                        ! Minute 5
  0;                        ! Value Until Time 5

OS:Schedule:Ruleset,
  {6d073087-aca7-426b-83fb-7d22723d9381},  ! Handle
  Medium Office People Activity Level Schedule,  ! Name
  ,                         ! Schedule Type Limits Name
  {c991d709-9646-489e-9cf6-3d6fb6894c82};  ! Default Day Schedule Name

OS:Schedule:Day,
  {c991d709-9646-489e-9cf6-3d6fb6894c82},  ! Handle
  Medium Office People Activity Level All Days Schedule,  ! Name
  {bbfc5971-db34-4cb2-9af8-cedd6d9998a7},  ! Schedule Type Limits Name
  ,                         ! Interpolate to Timestep
  24,                       ! Hour 1
  0,                        ! Minute 1
  120;                      ! Value Until Time 1

OS:Schedule:Ruleset,
  {e3b1ed46-4cd6-41d4-bebf-a4ca44848f89},  ! Handle
  Medium Office Lighting Schedule,  ! Name
  ,                         ! Schedule Type Limits Name
  {b3f32f13-d9d9-42c6-898a-3130c6ab7b24},  ! Default Day Schedule Name
  {db826f21-ec40-4c49-87db-cd3ac292efd2},  ! Summer Design Day Schedule Name
  {1e78656a-cb72-49e2-a2be-40b49068b9de};  ! Winter Design Day Schedule Name

OS:Schedule:Day,
  {b3f32f13-d9d9-42c6-898a-3130c6ab7b24},  ! Handle
  Medium Office Lighting All Other Days Schedule,  ! Name
  {0c9b3dac-6511-4bab-8271-b9a189e78d36},  ! Schedule Type Limits Name
  ,                         ! Interpolate to Timestep
  24,                       ! Hour 1
  0,                        ! Minute 1
  0.05;                     ! Value Until Time 1

OS:Schedule:Day,
  {90a5236d-1832-42c3-bc53-804b53cbbb37},  ! Handle
  Medium Office Lighting Summer Design Day Schedule,  ! Name
  {0c9b3dac-6511-4bab-8271-b9a189e78d36},  ! Schedule Type Limits Name
  ,                         ! Interpolate to Timestep
  6,                        ! Hour 1
  0,                        ! Minute 1
  1,                        ! Value Until Time 1
  24,                       ! Hour 2
  0,                        ! Minute 2
  0;                        ! Value Until Time 2

OS:Schedule:Day,
  {db826f21-ec40-4c49-87db-cd3ac292efd2},  ! Handle
  OS:Schedule:Day 2,        ! Name
  {0c9b3dac-6511-4bab-8271-b9a189e78d36},  ! Schedule Type Limits Name
  ,                         ! Interpolate to Timestep
  6,                        ! Hour 1
  0,                        ! Minute 1
  1,                        ! Value Until Time 1
  24,                       ! Hour 2
  0,                        ! Minute 2
  0;                        ! Value Until Time 2

OS:Schedule:Day,
  {9a302f5b-7b0a-4b3f-94ce-ef2eda6fe8a9},  ! Handle
  Medium Office Lighting Winter Design Day Schedule,  ! Name
  {0c9b3dac-6511-4bab-8271-b9a189e78d36},  ! Schedule Type Limits Name
  ,                         ! Interpolate to Timestep
  24,                       ! Hour 1
  0,                        ! Minute 1
  0;                        ! Value Until Time 1

OS:Schedule:Day,
  {1e78656a-cb72-49e2-a2be-40b49068b9de},  ! Handle
  OS:Schedule:Day 3,        ! Name
  {0c9b3dac-6511-4bab-8271-b9a189e78d36},  ! Schedule Type Limits Name
  ,                         ! Interpolate to Timestep
  24,                       ! Hour 1
  0,                        ! Minute 1
  0;                        ! Value Until Time 1

OS:Schedule:Rule,
  {2cc264f4-b04a-4d95-b2fd-242f20d5a25a},  ! Handle
  Medium Office Lighting Schedule Weekdays Rule,  ! Name
  {e3b1ed46-4cd6-41d4-bebf-a4ca44848f89},  ! Schedule Ruleset Name
  1,                        ! Rule Order
  {3ac43e2f-7a38-4103-89c8-3dd407b9c104},  ! Day Schedule Name
  ,                         ! Apply Sunday
  Yes,                      ! Apply Monday
  Yes,                      ! Apply Tuesday
  Yes,                      ! Apply Wednesday
  Yes,                      ! Apply Thursday
  Yes;                      ! Apply Friday

OS:Schedule:Day,
  {3ac43e2f-7a38-4103-89c8-3dd407b9c104},  ! Handle
  Medium Office Lighting Weekdays Schedule,  ! Name
  {0c9b3dac-6511-4bab-8271-b9a189e78d36},  ! Schedule Type Limits Name
  ,                         ! Interpolate to Timestep
  5,                        ! Hour 1
  0,                        ! Minute 1
  0.05,                     ! Value Until Time 1
  7,                        ! Hour 2
  0,                        ! Minute 2
  0.1,                      ! Value Until Time 2
  8,                        ! Hour 3
  0,                        ! Minute 3
  0.3,                      ! Value Until Time 3
  17,                       ! Hour 4
  0,                        ! Minute 4
  0.9,                      ! Value Until Time 4
  18,                       ! Hour 5
  0,                        ! Minute 5
  0.7,                      ! Value Until Time 5
  20,                       ! Hour 6
  0,                        ! Minute 6
  0.5,                      ! Value Until Time 6
  22,                       ! Hour 7
  0,                        ! Minute 7
  0.3,                      ! Value Until Time 7
  23,                       ! Hour 8
  0,                        ! Minute 8
  0.1,                      ! Value Until Time 8
  24,                       ! Hour 9
  0,                        ! Minute 9
  0.05;                     ! Value Until Time 9

OS:Schedule:Rule,
  {f300a96b-0cd6-432e-8efa-891ac6006a5c},  ! Handle
  Medium Office Lighting Schedule Saturday Rule,  ! Name
  {e3b1ed46-4cd6-41d4-bebf-a4ca44848f89},  ! Schedule Ruleset Name
  0,                        ! Rule Order
  {36733b14-bc91-498f-a249-8c85730f0f19},  ! Day Schedule Name
  ,                         ! Apply Sunday
  ,                         ! Apply Monday
  ,                         ! Apply Tuesday
  ,                         ! Apply Wednesday
  ,                         ! Apply Thursday
  ,                         ! Apply Friday
  Yes;                      ! Apply Saturday

OS:Schedule:Day,
  {36733b14-bc91-498f-a249-8c85730f0f19},  ! Handle
  Medium Office Lighting Saturday Schedule,  ! Name
  {0c9b3dac-6511-4bab-8271-b9a189e78d36},  ! Schedule Type Limits Name
  ,                         ! Interpolate to Timestep
  6,                        ! Hour 1
  0,                        ! Minute 1
  0.05,                     ! Value Until Time 1
  8,                        ! Hour 2
  0,                        ! Minute 2
  0.1,                      ! Value Until Time 2
  14,                       ! Hour 3
  0,                        ! Minute 3
  0.5,                      ! Value Until Time 3
  17,                       ! Hour 4
  0,                        ! Minute 4
  0.15,                     ! Value Until Time 4
  24,                       ! Hour 5
  0,                        ! Minute 5
  0.05;                     ! Value Until Time 5

OS:Schedule:Ruleset,
  {fe17623a-442e-43d1-888a-7b73e61e957e},  ! Handle
  Medium Office Electric Equipment Schedule,  ! Name
  ,                         ! Schedule Type Limits Name
  {de3b5b47-e2d0-4b5a-af89-5fd369ae3231},  ! Default Day Schedule Name
  {a1f95de1-5741-4a42-a697-df783ac5d265},  ! Summer Design Day Schedule Name
  {dc756960-7d8a-4002-a096-aa64b0f2fde7};  ! Winter Design Day Schedule Name

OS:Schedule:Day,
  {de3b5b47-e2d0-4b5a-af89-5fd369ae3231},  ! Handle
  Medium Office Electric Equipment All Other Days Schedule,  ! Name
  {0c9b3dac-6511-4bab-8271-b9a189e78d36},  ! Schedule Type Limits Name
  ,                         ! Interpolate to Timestep
  24,                       ! Hour 1
  0,                        ! Minute 1
  0.3;                      ! Value Until Time 1

OS:Schedule:Day,
  {8d8490b4-7e25-4300-a6a4-b6b8e6bd1558},  ! Handle
  Medium Office Electric Equipment Summer Design Day Schedule,  ! Name
  {0c9b3dac-6511-4bab-8271-b9a189e78d36},  ! Schedule Type Limits Name
  ,                         ! Interpolate to Timestep
  6,                        ! Hour 1
  0,                        ! Minute 1
  1,                        ! Value Until Time 1
  24,                       ! Hour 2
  0,                        ! Minute 2
  0;                        ! Value Until Time 2

OS:Schedule:Day,
  {a1f95de1-5741-4a42-a697-df783ac5d265},  ! Handle
  OS:Schedule:Day 4,        ! Name
  {0c9b3dac-6511-4bab-8271-b9a189e78d36},  ! Schedule Type Limits Name
  ,                         ! Interpolate to Timestep
  6,                        ! Hour 1
  0,                        ! Minute 1
  1,                        ! Value Until Time 1
  24,                       ! Hour 2
  0,                        ! Minute 2
  0;                        ! Value Until Time 2

OS:Schedule:Day,
  {5fb7f034-90d6-4614-b59c-f35167c08e43},  ! Handle
  Medium Office Electric Equipment Winter Design Day Schedule,  ! Name
  {0c9b3dac-6511-4bab-8271-b9a189e78d36},  ! Schedule Type Limits Name
  ,                         ! Interpolate to Timestep
  24,                       ! Hour 1
  0,                        ! Minute 1
  0;                        ! Value Until Time 1

OS:Schedule:Day,
  {dc756960-7d8a-4002-a096-aa64b0f2fde7},  ! Handle
  OS:Schedule:Day 5,        ! Name
  {0c9b3dac-6511-4bab-8271-b9a189e78d36},  ! Schedule Type Limits Name
  ,                         ! Interpolate to Timestep
  24,                       ! Hour 1
  0,                        ! Minute 1
  0;                        ! Value Until Time 1

OS:Schedule:Rule,
  {814ca791-9c59-475c-8eef-b59c5bf0338f},  ! Handle
  Medium Office Electric Equipment Schedule Weekdays Rule,  ! Name
  {fe17623a-442e-43d1-888a-7b73e61e957e},  ! Schedule Ruleset Name
  1,                        ! Rule Order
  {d0a1de4c-df32-46b5-8168-a54c9e488aa9},  ! Day Schedule Name
  ,                         ! Apply Sunday
  Yes,                      ! Apply Monday
  Yes,                      ! Apply Tuesday
  Yes,                      ! Apply Wednesday
  Yes,                      ! Apply Thursday
  Yes;                      ! Apply Friday

OS:Schedule:Day,
  {d0a1de4c-df32-46b5-8168-a54c9e488aa9},  ! Handle
  Medium Office Electric Equipment Weekdays Schedule,  ! Name
  {0c9b3dac-6511-4bab-8271-b9a189e78d36},  ! Schedule Type Limits Name
  ,                         ! Interpolate to Timestep
  8,                        ! Hour 1
  0,                        ! Minute 1
  0.4,                      ! Value Until Time 1
  12,                       ! Hour 2
  0,                        ! Minute 2
  0.9,                      ! Value Until Time 2
  13,                       ! Hour 3
  0,                        ! Minute 3
  0.8,                      ! Value Until Time 3
  17,                       ! Hour 4
  0,                        ! Minute 4
  0.9,                      ! Value Until Time 4
  18,                       ! Hour 5
  0,                        ! Minute 5
  0.8,                      ! Value Until Time 5
  20,                       ! Hour 6
  0,                        ! Minute 6
  0.6,                      ! Value Until Time 6
  22,                       ! Hour 7
  0,                        ! Minute 7
  0.5,                      ! Value Until Time 7
  24,                       ! Hour 8
  0,                        ! Minute 8
  0.4;                      ! Value Until Time 8

OS:Schedule:Rule,
  {85c655d2-7133-44bb-a21d-237058b2e5ce},  ! Handle
  Medium Office Electric Equipment Schedule Saturday Rule,  ! Name
  {fe17623a-442e-43d1-888a-7b73e61e957e},  ! Schedule Ruleset Name
  0,                        ! Rule Order
  {2f1bc53e-0379-41a9-b062-f6923d8499c5},  ! Day Schedule Name
  ,                         ! Apply Sunday
  ,                         ! Apply Monday
  ,                         ! Apply Tuesday
  ,                         ! Apply Wednesday
  ,                         ! Apply Thursday
  ,                         ! Apply Friday
  Yes;                      ! Apply Saturday

OS:Schedule:Day,
  {2f1bc53e-0379-41a9-b062-f6923d8499c5},  ! Handle
  Medium Office Electric Equipment Saturday Schedule,  ! Name
  {0c9b3dac-6511-4bab-8271-b9a189e78d36},  ! Schedule Type Limits Name
  ,                         ! Interpolate to Timestep
  6,                        ! Hour 1
  0,                        ! Minute 1
  0.3,                      ! Value Until Time 1
  8,                        ! Hour 2
  0,                        ! Minute 2
  0.4,                      ! Value Until Time 2
  14,                       ! Hour 3
  0,                        ! Minute 3
  0.5,                      ! Value Until Time 3
  17,                       ! Hour 4
  0,                        ! Minute 4
  0.35,                     ! Value Until Time 4
  24,                       ! Hour 5
  0,                        ! Minute 5
  0.3;                      ! Value Until Time 5

OS:Schedule:Ruleset,
  {984057dd-70c5-43c6-8ce7-1046da89a4fe},  ! Handle
  Medium Office Gas Equipment Schedule,  ! Name
  ,                         ! Schedule Type Limits Name
  {bde091df-8f08-4b1a-a1a6-0172005de918},  ! Default Day Schedule Name
  {52d4b760-1d67-4c00-a3aa-53f77719f9e0},  ! Summer Design Day Schedule Name
  {ba7153a8-2d17-4559-9eec-b07c833b674a};  ! Winter Design Day Schedule Name

OS:Schedule:Day,
  {bde091df-8f08-4b1a-a1a6-0172005de918},  ! Handle
  Medium Office Gas Equipment All Other Days Schedule,  ! Name
  {0c9b3dac-6511-4bab-8271-b9a189e78d36},  ! Schedule Type Limits Name
  ,                         ! Interpolate to Timestep
  24,                       ! Hour 1
  0,                        ! Minute 1
  0.3;                      ! Value Until Time 1

OS:Schedule:Day,
  {6a2a523f-88c0-4681-9c96-ddf0ad27e00a},  ! Handle
  Medium Office Gas Equipment Summer Design Day Schedule,  ! Name
  {0c9b3dac-6511-4bab-8271-b9a189e78d36},  ! Schedule Type Limits Name
  ,                         ! Interpolate to Timestep
  6,                        ! Hour 1
  0,                        ! Minute 1
  1,                        ! Value Until Time 1
  24,                       ! Hour 2
  0,                        ! Minute 2
  0;                        ! Value Until Time 2

OS:Schedule:Day,
  {52d4b760-1d67-4c00-a3aa-53f77719f9e0},  ! Handle
  OS:Schedule:Day 6,        ! Name
  {0c9b3dac-6511-4bab-8271-b9a189e78d36},  ! Schedule Type Limits Name
  ,                         ! Interpolate to Timestep
  6,                        ! Hour 1
  0,                        ! Minute 1
  1,                        ! Value Until Time 1
  24,                       ! Hour 2
  0,                        ! Minute 2
  0;                        ! Value Until Time 2

OS:Schedule:Day,
  {16d44f31-8c55-4cc6-a04a-1934d1e85e31},  ! Handle
  Medium Office Gas Equipment Winter Design Day Schedule,  ! Name
  {0c9b3dac-6511-4bab-8271-b9a189e78d36},  ! Schedule Type Limits Name
  ,                         ! Interpolate to Timestep
  24,                       ! Hour 1
  0,                        ! Minute 1
  0;                        ! Value Until Time 1

OS:Schedule:Day,
  {ba7153a8-2d17-4559-9eec-b07c833b674a},  ! Handle
  OS:Schedule:Day 7,        ! Name
  {0c9b3dac-6511-4bab-8271-b9a189e78d36},  ! Schedule Type Limits Name
  ,                         ! Interpolate to Timestep
  24,                       ! Hour 1
  0,                        ! Minute 1
  0;                        ! Value Until Time 1

OS:Schedule:Rule,
  {552e2ef9-92d4-4163-a6ac-0602da07773c},  ! Handle
  Medium Office Gas Equipment Schedule Weekdays Rule,  ! Name
  {984057dd-70c5-43c6-8ce7-1046da89a4fe},  ! Schedule Ruleset Name
  1,                        ! Rule Order
  {bb7a2c4f-1ede-41a8-8fc4-01e0715b917e},  ! Day Schedule Name
  ,                         ! Apply Sunday
  Yes,                      ! Apply Monday
  Yes,                      ! Apply Tuesday
  Yes,                      ! Apply Wednesday
  Yes,                      ! Apply Thursday
  Yes;                      ! Apply Friday

OS:Schedule:Day,
  {bb7a2c4f-1ede-41a8-8fc4-01e0715b917e},  ! Handle
  Medium Office Gas Equipment Weekdays Schedule,  ! Name
  {0c9b3dac-6511-4bab-8271-b9a189e78d36},  ! Schedule Type Limits Name
  ,                         ! Interpolate to Timestep
  8,                        ! Hour 1
  0,                        ! Minute 1
  0.4,                      ! Value Until Time 1
  12,                       ! Hour 2
  0,                        ! Minute 2
  0.9,                      ! Value Until Time 2
  13,                       ! Hour 3
  0,                        ! Minute 3
  0.8,                      ! Value Until Time 3
  17,                       ! Hour 4
  0,                        ! Minute 4
  0.9,                      ! Value Until Time 4
  18,                       ! Hour 5
  0,                        ! Minute 5
  0.8,                      ! Value Until Time 5
  20,                       ! Hour 6