
OS:Version,
  {24a9611d-c967-4e37-b103-baad9e697bc2}, !- Handle
  1.5.1;                                  !- Version Identifier

OS:SimulationControl,
  {f5abdea2-738f-4287-8c75-7c82ac99e1ad}, !- Handle
  Yes,                                    !- Do Zone Sizing Calculation
  Yes,                                    !- Do System Sizing Calculation
  ,                                       !- Do Plant Sizing Calculation
  No,                                     !- Run Simulation for Sizing Periods
  Yes;                                    !- Run Simulation for Weather File Run Periods

OS:Timestep,
  {c40d6c31-4dc0-433f-b2fc-db70a2e5be91}, !- Handle
  6;                                      !- Number of Timesteps per Hour

OS:RunPeriod,
  {d754ed2d-fd40-4888-910f-56dad10ae37f}, !- Handle
  Run Period 1,                           !- Name
  1,                                      !- Begin Month
  1,                                      !- Begin Day of Month
  12,                                     !- End Month
  31,                                     !- End Day of Month
  No,                                     !- Use Weather File Holidays and Special Days
  No,                                     !- Use Weather File Daylight Saving Period
  No,                                     !- Apply Weekend Holiday Rule
  Yes,                                    !- Use Weather File Rain Indicators
  Yes,                                    !- Use Weather File Snow Indicators
  1;                                      !- Number of Times Runperiod to be Repeated

OS:SurfaceConvectionAlgorithm:Inside,
  {5904ce00-c54f-4153-9f2c-5155e00526cf}, !- Handle
  TARP;                                   !- Algorithm

OS:SurfaceConvectionAlgorithm:Outside,
  {b1501dd3-d039-4dab-86af-e6a33b51c869}, !- Handle
  DOE-2;                                  !- Algorithm

OS:HeatBalanceAlgorithm,
  {18ad255d-8575-4b25-a3be-cb43210ee7aa}, !- Handle
  ConductionTransferFunction,             !- Algorithm
  200;                                    !- Surface Temperature Upper Limit {F}

OS:ZoneAirHeatBalanceAlgorithm,
  {fa89e52d-298e-4457-8bfc-c39e9d1e5192}, !- Handle
  AnalyticalSolution;                     !- Algorithm

OS:ConvergenceLimits,
  {ccb75121-42cd-46e1-8c90-8a75a001d0f3}; !- Handle

OS:ShadowCalculation,
  {a0a4d409-efa6-4c15-a945-30cf9ddd24f9}, !- Handle
  7,                                      !- Calculation Frequency
  15000;                                  !- Maximum Figures in Shadow Overlap Calculations

OS:Site,
  {5d559c4b-7bd7-4173-84ee-c563fe4fe1a5}, !- Handle
  Site 1,                                 !- Name
  41.77,                                  !- Latitude {deg}
  -87.75,                                 !- Longitude {deg}
  -6,                                     !- Time Zone {hr}
  190,                                    !- Elevation {m}
  ;                                       !- Terrain

OS:Site:GroundTemperature:BuildingSurface,
  {6f4aab80-6eaf-44bb-8b8e-10567538e96e}, !- Handle
  19.527,                                 !- January Ground Temperature {C}
  19.502,                                 !- February Ground Temperature {C}
  19.536,                                 !- March Ground Temperature {C}
  19.598,                                 !- April Ground Temperature {C}
  20.002,                                 !- May Ground Temperature {C}
  21.64,                                  !- June Ground Temperature {C}
  22.225,                                 !- July Ground Temperature {C}
  22.375,                                 !- August Ground Temperature {C}
  21.449,                                 !- September Ground Temperature {C}
  20.121,                                 !- October Ground Temperature {C}
  19.802,                                 !- November Ground Temperature {C}
  19.633;                                 !- December Ground Temperature {C}

OS:Site:WaterMainsTemperature,
  {23f00f99-bcfc-4c1d-bbd2-21150bea55a8}, !- Handle
  Correlation,                            !- Calculation Method
  ,                                       !- Temperature Schedule Name
  9.69,                                   !- Annual Average Outdoor Air Temperature {C}
  28.1;                                   !- Maximum Difference In Monthly Average Outdoor Air Temperatures {deltaC}

OS:SizingPeriod:DesignDay,
  {370d79d4-1932-4508-a291-3effaece5b3b}, !- Handle
  Sizing Period Design Day 1,             !- Name
  -20.6,                                  !- Maximum Dry-Bulb Temperature {C}
  0,                                      !- Daily Dry-Bulb Temperature Range {deltaC}
  -20.6,                                  !- Humidity Indicating Conditions at Maximum Dry-Bulb {BasedOnField A3}
  99063,                                  !- Barometric Pressure {Pa}
  4.9,                                    !- Wind Speed {m/s}
  270,                                    !- Wind Direction {deg}
  0,                                      !- Sky Clearness
  0,                                      !- Rain Indicator
  0,                                      !- Snow Indicator
  21,                                     !- Day of Month
  1,                                      !- Month
  WinterDesignDay,                        !- Day Type
  0,                                      !- Daylight Saving Time Indicator
  WetBulb,                                !- Humidity Indicating Type
  ,                                       !- Humidity Indicating Day Schedule Name
  DefaultMultipliers,                     !- Dry-Bulb Temperature Range Modifier Type
  ,                                       !- Dry-Bulb Temperature Range Modifier Schedule Name
  AshraeClearSky;                         !- Solar Model Indicator

OS:SizingPeriod:DesignDay,
  {d4e9a2f9-6898-489a-83d8-f978891111ae}, !- Handle
  Sizing Period Design Day 2,             !- Name
  33.2,                                   !- Maximum Dry-Bulb Temperature {C}
  10.7,                                   !- Daily Dry-Bulb Temperature Range {deltaC}
  23.8,                                   !- Humidity Indicating Conditions at Maximum Dry-Bulb {BasedOnField A3}
  99063,                                  !- Barometric Pressure {Pa}
  5.3,                                    !- Wind Speed {m/s}
  230,                                    !- Wind Direction {deg}
  1,                                      !- Sky Clearness
  0,                                      !- Rain Indicator
  0,                                      !- Snow Indicator
  21,                                     !- Day of Month
  7,                                      !- Month
  SummerDesignDay,                        !- Day Type
  0,                                      !- Daylight Saving Time Indicator
  WetBulb,                                !- Humidity Indicating Type
  ,                                       !- Humidity Indicating Day Schedule Name
  DefaultMultipliers,                     !- Dry-Bulb Temperature Range Modifier Type
  ,                                       !- Dry-Bulb Temperature Range Modifier Schedule Name
  AshraeClearSky;                         !- Solar Model Indicator

OS:ScheduleTypeLimits,
  {3c7f4f7f-8c62-4742-9414-7de8c108e8d6}, !- Handle
  Temperature,                            !- Name
  -60,                                    !- Lower Limit Value {BasedOnField A4}
  200,                                    !- Upper Limit Value {BasedOnField A4}
  CONTINUOUS,                             !- Numeric Type
  Temperature;                            !- Unit Type

OS:DefaultScheduleSet,
  {7bfb0a3a-a086-48fe-a7d0-1b59a56fc235}, !- Handle
  Default Schedules,                      !- Name
  ,                                       !- Hours of Operation Schedule Name
  {486cf384-1832-4df9-ad6c-cc6dec5be501}, !- Number of People Schedule Name
  {43055924-bad3-45ad-b22c-fd478c55d7ed}, !- People Activity Level Schedule Name
  {dd8e6694-7fad-493b-a50b-310b38c7a07e}, !- Lighting Schedule Name
  {e19d4ed2-6afe-4d33-8866-f88394a74100}, !- Electric Equipment Schedule Name
  {bdf610b7-e5ef-414a-a3f7-84a74f36b964}, !- Gas Equipment Schedule Name
  {010dceac-5a02-46fa-ad52-cc57c5503419}, !- Hot Water Equipment Schedule Name
  {4c073a07-6462-465d-a082-42144fe9cf74}, !- Infiltration Schedule Name
  ,                                       !- Steam Equipment Schedule Name
  ;                                       !- Other Equipment Schedule Name

OS:Schedule:Ruleset,
  {486cf384-1832-4df9-ad6c-cc6dec5be501}, !- Handle
  Medium Office Number of People Schedule, !- Name
  {3e279624-6223-43cb-b80f-bc529a48ed7c}, !- Schedule Type Limits Name
  {4cc09af7-ce2c-4638-84ce-f92f23bc982c}, !- Default Day Schedule Name
  {14f27d34-bb09-42d8-9785-0562fa108810}; !- Summer Design Day Schedule Name

OS:Schedule:Day,
  {4cc09af7-ce2c-4638-84ce-f92f23bc982c}, !- Handle
  Medium Office Number of People All Other Days Schedule, !- Name
  {3e279624-6223-43cb-b80f-bc529a48ed7c}, !- Schedule Type Limits Name
  ,                                       !- Interpolate to Timestep
  24,                                     !- Hour 1
  0,                                      !- Minute 1
  0;                                      !- Value Until Time 1

OS:Schedule:Day,
  {0b01e2b9-768b-4e65-aae2-8a21e3eb36f3}, !- Handle
  Medium Office Number of People Summer Design Day Schedule, !- Name
  ,                                       !- Schedule Type Limits Name
  ,                                       !- Interpolate to Timestep
  6,                                      !- Hour 1
  0,                                      !- Minute 1
  0,                                      !- Value Until Time 1
  22,                                     !- Hour 2
  0,                                      !- Minute 2
  1,                                      !- Value Until Time 2
  24,                                     !- Hour 3
  0,                                      !- Minute 3
  0.05;                                   !- Value Until Time 3

OS:Schedule:Day,
  {14f27d34-bb09-42d8-9785-0562fa108810}, !- Handle
  Medium Office Number of People Summer Design Day Schedule 1, !- Name
  {3e279624-6223-43cb-b80f-bc529a48ed7c}, !- Schedule Type Limits Name
  ,                                       !- Interpolate to Timestep
  6,                                      !- Hour 1
  0,                                      !- Minute 1
  0,                                      !- Value Until Time 1
  22,                                     !- Hour 2
  0,                                      !- Minute 2
  1,                                      !- Value Until Time 2
  24,                                     !- Hour 3
  0,                                      !- Minute 3
  0.05;                                   !- Value Until Time 3

OS:Schedule:Rule,
  {18cf8299-e598-4403-bc97-24dd992220f7}, !- Handle
  Medium Office Number of People Schedule Weekdays Rule, !- Name
  {486cf384-1832-4df9-ad6c-cc6dec5be501}, !- Schedule Ruleset Name
  1,                                      !- Rule Order
  {757ecb42-e196-493e-99f0-a67a90cc68cb}, !- Day Schedule Name
  ,                                       !- Apply Sunday
  Yes,                                    !- Apply Monday
  Yes,                                    !- Apply Tuesday
  Yes,                                    !- Apply Wednesday
  Yes,                                    !- Apply Thursday
  Yes;                                    !- Apply Friday

OS:Schedule:Day,
  {757ecb42-e196-493e-99f0-a67a90cc68cb}, !- Handle
  Medium Office Number of People Weekdays Schedule, !- Name
  {3e279624-6223-43cb-b80f-bc529a48ed7c}, !- Schedule Type Limits Name
  ,                                       !- Interpolate to Timestep
  6,                                      !- Hour 1
  0,                                      !- Minute 1
  0,                                      !- Value Until Time 1
  7,                                      !- Hour 2
  0,                                      !- Minute 2
  0.1,                                    !- Value Until Time 2
  8,                                      !- Hour 3
  0,                                      !- Minute 3
  0.2,                                    !- Value Until Time 3
  12,                                     !- Hour 4
  0,                                      !- Minute 4
  0.95,                                   !- Value Until Time 4
  13,                                     !- Hour 5
  0,                                      !- Minute 5
  0.5,                                    !- Value Until Time 5
  17,                                     !- Hour 6
  0,                                      !- Minute 6
  0.95,                                   !- Value Until Time 6
  18,                                     !- Hour 7
  0,                                      !- Minute 7
  0.7,                                    !- Value Until Time 7
  20,                                     !- Hour 8
  0,                                      !- Minute 8
  0.4,                                    !- Value Until Time 8
  22,                                     !- Hour 9
  0,                                      !- Minute 9
  0.1,                                    !- Value Until Time 9
  24,                                     !- Hour 10
  0,                                      !- Minute 10
  0.05;                                   !- Value Until Time 10

OS:Schedule:Rule,
  {a4affd4f-228c-4f6d-81f7-ba6e53d3893e}, !- Handle
  Medium Office Number of People Schedule Saturday Rule, !- Name
  {486cf384-1832-4df9-ad6c-cc6dec5be501}, !- Schedule Ruleset Name
  0,                                      !- Rule Order
  {7a7915d5-abce-4f0e-9c23-9c66effcfc09}, !- Day Schedule Name
  ,                                       !- Apply Sunday
  ,                                       !- Apply Monday
  ,                                       !- Apply Tuesday
  ,                                       !- Apply Wednesday
  ,                                       !- Apply Thursday
  ,                                       !- Apply Friday
  Yes;                                    !- Apply Saturday

OS:Schedule:Day,
  {7a7915d5-abce-4f0e-9c23-9c66effcfc09}, !- Handle
  Medium Office Number of People Saturday Schedule, !- Name
  {3e279624-6223-43cb-b80f-bc529a48ed7c}, !- Schedule Type Limits Name
  ,                                       !- Interpolate to Timestep
  6,                                      !- Hour 1
  0,                                      !- Minute 1
  0,                                      !- Value Until Time 1
  8,                                      !- Hour 2
  0,                                      !- Minute 2
  0.1,                                    !- Value Until Time 2
  14,                                     !- Hour 3
  0,                                      !- Minute 3
  0.5,                                    !- Value Until Time 3
  17,                                     !- Hour 4
  0,                                      !- Minute 4
  0.1,                                    !- Value Until Time 4
  24,                                     !- Hour 5
  0,                                      !- Minute 5
  0;                                      !- Value Until Time 5

OS:ScheduleTypeLimits,
  {3e279624-6223-43cb-b80f-bc529a48ed7c}, !- Handle
  Fractional,                             !- Name
  0,                                      !- Lower Limit Value {BasedOnField A4}
  1,                                      !- Upper Limit Value {BasedOnField A4}
  Continuous;                             !- Numeric Type

OS:Schedule:Ruleset,
  {43055924-bad3-45ad-b22c-fd478c55d7ed}, !- Handle
  Medium Office People Activity Level Schedule, !- Name
  {2923c187-3262-4720-b77d-5555c2cc390d}, !- Schedule Type Limits Name
  {db7befd4-832e-41ab-a0c0-9114fcb481f8}; !- Default Day Schedule Name

OS:Schedule:Day,
  {db7befd4-832e-41ab-a0c0-9114fcb481f8}, !- Handle
  Medium Office People Activity Level All Days Schedule, !- Name
  {2923c187-3262-4720-b77d-5555c2cc390d}, !- Schedule Type Limits Name
  ,                                       !- Interpolate to Timestep
  24,                                     !- Hour 1
  0,                                      !- Minute 1
  120;                                    !- Value Until Time 1

OS:ScheduleTypeLimits,
  {2923c187-3262-4720-b77d-5555c2cc390d}, !- Handle
  ActivityLevel,                          !- Name
  0,                                      !- Lower Limit Value {BasedOnField A4}
  ,                                       !- Upper Limit Value {BasedOnField A4}
  Continuous,                             !- Numeric Type
  ActivityLevel;                          !- Unit Type

OS:Schedule:Ruleset,
  {dd8e6694-7fad-493b-a50b-310b38c7a07e}, !- Handle
  Medium Office Lighting Schedule,        !- Name
  {3e279624-6223-43cb-b80f-bc529a48ed7c}, !- Schedule Type Limits Name
  {1e210966-ab4c-4b10-9dce-d663adcccea5}, !- Default Day Schedule Name
  {e1e6b287-0b82-4e42-8f87-d2c51da787d4}, !- Summer Design Day Schedule Name
  {6e877f3a-e53f-4017-85cc-8cda4fe35b3d}; !- Winter Design Day Schedule Name

OS:Schedule:Day,
  {1e210966-ab4c-4b10-9dce-d663adcccea5}, !- Handle
  Medium Office Lighting All Other Days Schedule, !- Name
  {3e279624-6223-43cb-b80f-bc529a48ed7c}, !- Schedule Type Limits Name
  ,                                       !- Interpolate to Timestep
  24,                                     !- Hour 1
  0,                                      !- Minute 1
  0.05;                                   !- Value Until Time 1

OS:Schedule:Day,
  {598b87bf-510d-46c6-9afa-db98ab5af6f6}, !- Handle
  Medium Office Lighting Summer Design Day Schedule, !- Name
  ,                                       !- Schedule Type Limits Name
  ,                                       !- Interpolate to Timestep
  6,                                      !- Hour 1
  0,                                      !- Minute 1
  1,                                      !- Value Until Time 1
  24,                                     !- Hour 2
  0,                                      !- Minute 2
  0;                                      !- Value Until Time 2

OS:Schedule:Day,
  {e1e6b287-0b82-4e42-8f87-d2c51da787d4}, !- Handle
  Medium Office Lighting Summer Design Day Schedule 1, !- Name
  {3e279624-6223-43cb-b80f-bc529a48ed7c}, !- Schedule Type Limits Name
  ,                                       !- Interpolate to Timestep
  6,                                      !- Hour 1
  0,                                      !- Minute 1
  1,                                      !- Value Until Time 1
  24,                                     !- Hour 2
  0,                                      !- Minute 2
  0;                                      !- Value Until Time 2

OS:Schedule:Day,
  {a568032e-b85d-42ab-adf3-21b1df62146b}, !- Handle
  Medium Office Lighting Winter Design Day Schedule, !- Name
  ,                                       !- Schedule Type Limits Name
  ,                                       !- Interpolate to Timestep
  24,                                     !- Hour 1
  0,                                      !- Minute 1
  0;                                      !- Value Until Time 1

OS:Schedule:Day,
  {6e877f3a-e53f-4017-85cc-8cda4fe35b3d}, !- Handle
  Medium Office Lighting Winter Design Day Schedule 1, !- Name
  {3e279624-6223-43cb-b80f-bc529a48ed7c}, !- Schedule Type Limits Name
  ,                                       !- Interpolate to Timestep
  24,                                     !- Hour 1
  0,                                      !- Minute 1
  0;                                      !- Value Until Time 1

OS:Schedule:Rule,
  {5f9c0bfb-1830-4ce0-a3fd-6534eeaa3e0c}, !- Handle
  Medium Office Lighting Schedule Weekdays Rule, !- Name
  {dd8e6694-7fad-493b-a50b-310b38c7a07e}, !- Schedule Ruleset Name
  1,                                      !- Rule Order
  {a04745e8-7aa7-4c13-b502-64ad2e6ff202}, !- Day Schedule Name
  ,                                       !- Apply Sunday
  Yes,                                    !- Apply Monday
  Yes,                                    !- Apply Tuesday
  Yes,                                    !- Apply Wednesday
  Yes,                                    !- Apply Thursday
  Yes;                                    !- Apply Friday

OS:Schedule:Day,
  {a04745e8-7aa7-4c13-b502-64ad2e6ff202}, !- Handle
  Medium Office Lighting Weekdays Schedule, !- Name
  {3e279624-6223-43cb-b80f-bc529a48ed7c}, !- Schedule Type Limits Name
  ,                                       !- Interpolate to Timestep
  5,                                      !- Hour 1
  0,                                      !- Minute 1
  0.05,                                   !- Value Until Time 1
  7,                                      !- Hour 2
  0,                                      !- Minute 2
  0.1,                                    !- Value Until Time 2
  8,                                      !- Hour 3
  0,                                      !- Minute 3
  0.3,                                    !- Value Until Time 3
  17,                                     !- Hour 4
  0,                                      !- Minute 4
  0.9,                                    !- Value Until Time 4
  18,                                     !- Hour 5
  0,                                      !- Minute 5
  0.7,                                    !- Value Until Time 5
  20,                                     !- Hour 6
  0,                                      !- Minute 6
  0.5,                                    !- Value Until Time 6
  22,                                     !- Hour 7
  0,                                      !- Minute 7
  0.3,                                    !- Value Until Time 7
  23,                                     !- Hour 8
  0,                                      !- Minute 8
  0.1,                                    !- Value Until Time 8
  24,                                     !- Hour 9
  0,                                      !- Minute 9
  0.05;                                   !- Value Until Time 9

OS:Schedule:Rule,
  {e1c07e92-479b-4b1d-8b48-fc1122093cfc}, !- Handle
  Medium Office Lighting Schedule Saturday Rule, !- Name
  {dd8e6694-7fad-493b-a50b-310b38c7a07e}, !- Schedule Ruleset Name
  0,                                      !- Rule Order
  {465779a1-3ad9-414d-83e4-3f1c530c8cd3}, !- Day Schedule Name
  ,                                       !- Apply Sunday
  ,                                       !- Apply Monday
  ,                                       !- Apply Tuesday
  ,                                       !- Apply Wednesday
  ,                                       !- Apply Thursday
  ,                                       !- Apply Friday
  Yes;                                    !- Apply Saturday

OS:Schedule:Day,
  {465779a1-3ad9-414d-83e4-3f1c530c8cd3}, !- Handle
  Medium Office Lighting Saturday Schedule, !- Name
  {3e279624-6223-43cb-b80f-bc529a48ed7c}, !- Schedule Type Limits Name
  ,                                       !- Interpolate to Timestep
  6,                                      !- Hour 1
  0,                                      !- Minute 1
  0.05,                                   !- Value Until Time 1
  8,                                      !- Hour 2
  0,                                      !- Minute 2
  0.1,                                    !- Value Until Time 2
  14,                                     !- Hour 3
  0,                                      !- Minute 3
  0.5,                                    !- Value Until Time 3
  17,                                     !- Hour 4
  0,                                      !- Minute 4
  0.15,                                   !- Value Until Time 4
  24,                                     !- Hour 5
  0,                                      !- Minute 5
  0.05;                                   !- Value Until Time 5

OS:Schedule:Ruleset,
  {e19d4ed2-6afe-4d33-8866-f88394a74100}, !- Handle
  Medium Office Electric Equipment Schedule, !- Name
  {3e279624-6223-43cb-b80f-bc529a48ed7c}, !- Schedule Type Limits Name
  {ada259fc-c658-45e4-a7af-febe1376f5c4}, !- Default Day Schedule Name
  {16c7b4c6-c5e9-445d-9817-6bd997e1c300}, !- Summer Design Day Schedule Name
  {58f2d0f7-8fe8-4ce4-8848-e6ea4a88b1e7}; !- Winter Design Day Schedule Name

OS:Schedule:Day,
  {ada259fc-c658-45e4-a7af-febe1376f5c4}, !- Handle
  Medium Office Electric Equipment All Other Days Schedule, !- Name
  {3e279624-6223-43cb-b80f-bc529a48ed7c}, !- Schedule Type Limits Name
  ,                                       !- Interpolate to Timestep
  24,                                     !- Hour 1
  0,                                      !- Minute 1
  0.3;                                    !- Value Until Time 1

OS:Schedule:Day,
  {aeb936a5-e1dd-4a57-88d4-0a7b531c72bc}, !- Handle
  Medium Office Electric Equipment Summer Design Day Schedule, !- Name
  ,                                       !- Schedule Type Limits Name
  ,                                       !- Interpolate to Timestep
  6,                                      !- Hour 1
  0,                                      !- Minute 1
  1,                                      !- Value Until Time 1
  24,                                     !- Hour 2
  0,                                      !- Minute 2
  0;                                      !- Value Until Time 2

OS:Schedule:Day,
  {16c7b4c6-c5e9-445d-9817-6bd997e1c300}, !- Handle
  Medium Office Electric Equipment Summer Design Day Schedule 1, !- Name
  {3e279624-6223-43cb-b80f-bc529a48ed7c}, !- Schedule Type Limits Name
  ,                                       !- Interpolate to Timestep
  6,                                      !- Hour 1
  0,                                      !- Minute 1
  1,                                      !- Value Until Time 1
  24,                                     !- Hour 2
  0,                                      !- Minute 2
  0;                                      !- Value Until Time 2

OS:Schedule:Day,
  {1488cd35-c095-498d-b36b-ed475006c0ee}, !- Handle
  Medium Office Electric Equipment Winter Design Day Schedule, !- Name
  ,                                       !- Schedule Type Limits Name
  ,                                       !- Interpolate to Timestep
  24,                                     !- Hour 1
  0,                                      !- Minute 1
  0;                                      !- Value Until Time 1

OS:Schedule:Day,
  {58f2d0f7-8fe8-4ce4-8848-e6ea4a88b1e7}, !- Handle
  Medium Office Electric Equipment Winter Design Day Schedule 1, !- Name
  {3e279624-6223-43cb-b80f-bc529a48ed7c}, !- Schedule Type Limits Name
  ,                                       !- Interpolate to Timestep
  24,                                     !- Hour 1
  0,                                      !- Minute 1
  0;                                      !- Value Until Time 1

OS:Schedule:Rule,
  {cd1461c4-1d75-4097-b54d-8341f4d87d4b}, !- Handle
  Medium Office Electric Equipment Schedule Weekdays Rule, !- Name
  {e19d4ed2-6afe-4d33-8866-f88394a74100}, !- Schedule Ruleset Name
  1,                                      !- Rule Order
  {ce1e622d-cd96-43ba-8f40-9d746e64ad03}, !- Day Schedule Name
  ,                                       !- Apply Sunday
  Yes,                                    !- Apply Monday
  Yes,                                    !- Apply Tuesday
  Yes,                                    !- Apply Wednesday
  Yes,                                    !- Apply Thursday
  Yes;                                    !- Apply Friday

OS:Schedule:Day,
  {ce1e622d-cd96-43ba-8f40-9d746e64ad03}, !- Handle
  Medium Office Electric Equipment Weekdays Schedule, !- Name
  {3e279624-6223-43cb-b80f-bc529a48ed7c}, !- Schedule Type Limits Name
  ,                                       !- Interpolate to Timestep
  8,                                      !- Hour 1
  0,                                      !- Minute 1
  0.4,                                    !- Value Until Time 1
  12,                                     !- Hour 2
  0,                                      !- Minute 2
  0.9,                                    !- Value Until Time 2
  13,                                     !- Hour 3
  0,                                      !- Minute 3
  0.8,                                    !- Value Until Time 3
  17,                                     !- Hour 4
  0,                                      !- Minute 4
  0.9,                                    !- Value Until Time 4
  18,                                     !- Hour 5
  0,                                      !- Minute 5
  0.8,                                    !- Value Until Time 5
  20,                                     !- Hour 6
  0,                                      !- Minute 6
  0.6,                                    !- Value Until Time 6
  22,                                     !- Hour 7
  0,                                      !- Minute 7
  0.5,                                    !- Value Until Time 7
  24,                                     !- Hour 8
  0,                                      !- Minute 8
  0.4;                                    !- Value Until Time 8

OS:Schedule:Rule,
  {b76c9537-0286-47af-8f3e-813a4b1d945d}, !- Handle
  Medium Office Electric Equipment Schedule Saturday Rule, !- Name
  {e19d4ed2-6afe-4d33-8866-f88394a74100}, !- Schedule Ruleset Name
  0,                                      !- Rule Order
  {4a8b5d84-51c7-495a-b45d-9bd0feb8d565}, !- Day Schedule Name
  ,                                       !- Apply Sunday
  ,                                       !- Apply Monday
  ,                                       !- Apply Tuesday
  ,                                       !- Apply Wednesday