
OS:Version,
  {d0c080f5-9ebf-4059-a14f-c9790d2f2a95}, !- Handle
  1.9.3;                                  !- Version Identifier

OS:Construction,
  {5143f5a4-374b-49e7-aabb-38b70568e634}, !- Handle
  Air Wall,                               !- Name
  ,                                       !- Surface Rendering Name
  {ce6ac51e-a098-4419-9404-5752d178cc61}; !- Layer 1

OS:Material:AirWall,
  {ce6ac51e-a098-4419-9404-5752d178cc61}, !- Handle
  Air Wall Material;                      !- Name

OS:ComponentData,
  {b8322bda-180b-4f52-ad2b-e56968023bda}, !- Handle
  Component Data 1,                       !- Name
  {383d24e0-5997-4aa9-8110-a5d3dcc6643c}, !- UUID
  {62feb64e-20b5-4c8f-9699-dd1d310d38d5}, !- Version UUID
  1446568203,                             !- Creation Timestamp
  1446568203,                             !- Version Timestamp
  {5143f5a4-374b-49e7-aabb-38b70568e634}, !- Name of Object 1
  {ce6ac51e-a098-4419-9404-5752d178cc61}; !- Name of Object 2

