
OS:Version,
  {d33714a0-b3ef-423b-a9fd-97abb461d119}, !- Handle
  1.8.5;                                  !- Version Identifier

OS:SimulationControl,
  {0c11c1b5-8e7f-4a9e-a18a-419af75bab34}, !- Handle
  Yes,                                    !- Do Zone Sizing Calculation
  Yes,                                    !- Do System Sizing Calculation
  ,                                       !- Do Plant Sizing Calculation
  No,                                     !- Run Simulation for Sizing Periods
  Yes;                                    !- Run Simulation for Weather File Run Periods

OS:Timestep,
  {0a88c231-e436-4e6d-991f-704521cc0c83}, !- Handle
  6;                                      !- Number of Timesteps per Hour

OS:RunPeriod,
  {f4d2116c-c5e1-470f-9ea1-ebdee045cfd2}, !- Handle
  Run Period 1,                           !- Name
  1,                                      !- Begin Month
  1,                                      !- Begin Day of Month
  12,                                     !- End Month
  31,                                     !- End Day of Month
  No,                                     !- Use Weather File Holidays and Special Days
  No,                                     !- Use Weather File Daylight Saving Period
  No,                                     !- Apply Weekend Holiday Rule
  Yes,                                    !- Use Weather File Rain Indicators
  Yes,                                    !- Use Weather File Snow Indicators
  1;                                      !- Number of Times Runperiod to be Repeated

OS:SurfaceConvectionAlgorithm:Inside,
  {e9762a60-d696-4b3d-973f-e56ab4b4ecf7}, !- Handle
  TARP;                                   !- Algorithm

OS:SurfaceConvectionAlgorithm:Outside,
  {b3273af8-3945-4e50-b06d-1bb09ecc355f}, !- Handle
  DOE-2;                                  !- Algorithm

OS:HeatBalanceAlgorithm,
  {7cbd7498-82d9-4681-ae23-717f699de7f5}, !- Handle
  ConductionTransferFunction,             !- Algorithm
  200;                                    !- Surface Temperature Upper Limit {C}

OS:ZoneAirHeatBalanceAlgorithm,
  {d505d92f-1590-4f21-b8be-2528e563a54c}, !- Handle
  AnalyticalSolution;                     !- Algorithm

OS:ConvergenceLimits,
  {6f4fa328-16f3-4127-9886-a66438664469}; !- Handle

OS:ShadowCalculation,
  {5e58b69c-27fe-45a0-b77f-1f282b4fc937}, !- Handle
  7,                                      !- Calculation Frequency
  15000;                                  !- Maximum Figures in Shadow Overlap Calculations

OS:Site,
  {6869e740-7f02-46bf-a762-166dbd6587dd}, !- Handle
  Site 1,                                 !- Name
  41.77,                                  !- Latitude {deg}
  -87.75,                                 !- Longitude {deg}
  -6,                                     !- Time Zone {hr}
  190,                                    !- Elevation {m}
  ;                                       !- Terrain

OS:Site:GroundTemperature:BuildingSurface,
  {12ab6828-8c12-410a-bd48-a9d5fa1ab333}, !- Handle
  19.527,                                 !- January Ground Temperature {C}
  19.502,                                 !- February Ground Temperature {C}
  19.536,                                 !- March Ground Temperature {C}
  19.598,                                 !- April Ground Temperature {C}
  20.002,                                 !- May Ground Temperature {C}
  21.64,                                  !- June Ground Temperature {C}
  22.225,                                 !- July Ground Temperature {C}
  22.375,                                 !- August Ground Temperature {C}
  21.449,                                 !- September Ground Temperature {C}
  20.121,                                 !- October Ground Temperature {C}
  19.802,                                 !- November Ground Temperature {C}
  19.633;                                 !- December Ground Temperature {C}

OS:Site:WaterMainsTemperature,
  {6578a4f7-9d8a-4894-93df-76a65169ab6b}, !- Handle
  Correlation,                            !- Calculation Method
  ,                                       !- Temperature Schedule Name
  9.69,                                   !- Annual Average Outdoor Air Temperature {C}
  28.1;                                   !- Maximum Difference In Monthly Average Outdoor Air Temperatures {deltaC}

OS:SizingPeriod:DesignDay,
  {7895bce5-d1b0-436b-b00c-8b8988940b5e}, !- Handle
  Sizing Period Design Day 1,             !- Name
  -20.6,                                  !- Maximum Dry-Bulb Temperature {C}
  0,                                      !- Daily Dry-Bulb Temperature Range {deltaC}
  -20.6,                                  !- Humidity Indicating Conditions at Maximum Dry-Bulb {BasedOnField A3}
  99063,                                  !- Barometric Pressure {Pa}
  4.9,                                    !- Wind Speed {m/s}
  270,                                    !- Wind Direction {deg}
  0,                                      !- Sky Clearness
  0,                                      !- Rain Indicator
  0,                                      !- Snow Indicator
  21,                                     !- Day of Month
  1,                                      !- Month
  WinterDesignDay,                        !- Day Type
  0,                                      !- Daylight Saving Time Indicator
  WetBulb,                                !- Humidity Indicating Type
  ,                                       !- Humidity Indicating Day Schedule Name
  DefaultMultipliers,                     !- Dry-Bulb Temperature Range Modifier Type
  ,                                       !- Dry-Bulb Temperature Range Modifier Schedule Name
  AshraeClearSky;                         !- Solar Model Indicator

OS:SizingPeriod:DesignDay,
  {e59e9da0-9de9-4b86-b5b2-7e0ae4b552f0}, !- Handle
  Sizing Period Design Day 2,             !- Name
  33.2,                                   !- Maximum Dry-Bulb Temperature {C}
  10.7,                                   !- Daily Dry-Bulb Temperature Range {deltaC}
  23.8,                                   !- Humidity Indicating Conditions at Maximum Dry-Bulb {BasedOnField A3}
  99063,                                  !- Barometric Pressure {Pa}
  5.3,                                    !- Wind Speed {m/s}
  230,                                    !- Wind Direction {deg}
  1,                                      !- Sky Clearness
  0,                                      !- Rain Indicator
  0,                                      !- Snow Indicator
  21,                                     !- Day of Month
  7,                                      !- Month
  SummerDesignDay,                        !- Day Type
  0,                                      !- Daylight Saving Time Indicator
  WetBulb,                                !- Humidity Indicating Type
  ,                                       !- Humidity Indicating Day Schedule Name
  DefaultMultipliers,                     !- Dry-Bulb Temperature Range Modifier Type
  ,                                       !- Dry-Bulb Temperature Range Modifier Schedule Name
  AshraeClearSky;                         !- Solar Model Indicator

OS:ScheduleTypeLimits,
  {4f7704de-8563-4e37-b100-9a207bf4012b}, !- Handle
  Temperature,                            !- Name
  -60,                                    !- Lower Limit Value {BasedOnField A4}
  200,                                    !- Upper Limit Value {BasedOnField A4}
  CONTINUOUS,                             !- Numeric Type
  Temperature;                            !- Unit Type

OS:DefaultScheduleSet,
  {97fad9f7-ce5a-4263-91bd-69b558e54c60}, !- Handle
  Default Schedules,                      !- Name
  ,                                       !- Hours of Operation Schedule Name
  {0b26b2eb-6e4d-419a-8aa2-49d113e11f4c}, !- Number of People Schedule Name
  {2a5a9c34-248e-4635-ad8f-6a7080abf673}, !- People Activity Level Schedule Name
  {5cb16a94-b0de-4c02-b4ae-2c7cde4bebc3}, !- Lighting Schedule Name
  {864818f1-5d2d-43d9-be76-0e73060992cf}, !- Electric Equipment Schedule Name
  {8ab8e10e-0f3e-43a0-ade3-6339956df9b5}, !- Gas Equipment Schedule Name
  {3707999a-7050-4935-b65a-73bb8ccf10ff}, !- Hot Water Equipment Schedule Name
  {3d1093f0-f99e-4a50-8b20-2c10071ad1ff}, !- Infiltration Schedule Name
  ,                                       !- Steam Equipment Schedule Name
  ;                                       !- Other Equipment Schedule Name

OS:Schedule:Ruleset,
  {0b26b2eb-6e4d-419a-8aa2-49d113e11f4c}, !- Handle
  Medium Office Number of People Schedule, !- Name
  {6379872a-37b6-4ec0-8551-676f8da4341f}, !- Schedule Type Limits Name
  {410ba0d2-bd9e-4abd-b90a-97eb96948587}, !- Default Day Schedule Name
  {87c779ef-db88-403b-87df-e88f7d69a3c4}; !- Summer Design Day Schedule Name

OS:Schedule:Day,
  {410ba0d2-bd9e-4abd-b90a-97eb96948587}, !- Handle
  Medium Office Number of People All Other Days Schedule, !- Name
  {6379872a-37b6-4ec0-8551-676f8da4341f}, !- Schedule Type Limits Name
  ,                                       !- Interpolate to Timestep
  24,                                     !- Hour 1
  0,                                      !- Minute 1
  0;                                      !- Value Until Time 1

OS:Schedule:Day,
  {883755c3-9256-4aba-881b-8c1fd9df70b1}, !- Handle
  Medium Office Number of People Summer Design Day Schedule, !- Name
  ,                                       !- Schedule Type Limits Name
  ,                                       !- Interpolate to Timestep
  6,                                      !- Hour 1
  0,                                      !- Minute 1
  0,                                      !- Value Until Time 1
  22,                                     !- Hour 2
  0,                                      !- Minute 2
  1,                                      !- Value Until Time 2
  24,                                     !- Hour 3
  0,                                      !- Minute 3
  0.05;                                   !- Value Until Time 3

OS:Schedule:Day,
  {87c779ef-db88-403b-87df-e88f7d69a3c4}, !- Handle
  Medium Office Number of People Summer Design Day Schedule 1, !- Name
  {6379872a-37b6-4ec0-8551-676f8da4341f}, !- Schedule Type Limits Name
  ,                                       !- Interpolate to Timestep
  6,                                      !- Hour 1
  0,                                      !- Minute 1
  0,                                      !- Value Until Time 1
  22,                                     !- Hour 2
  0,                                      !- Minute 2
  1,                                      !- Value Until Time 2
  24,                                     !- Hour 3
  0,                                      !- Minute 3
  0.05;                                   !- Value Until Time 3

OS:Schedule:Rule,
  {701c659e-5614-4f75-9923-68aac18625fe}, !- Handle
  Medium Office Number of People Schedule Weekdays Rule, !- Name
  {0b26b2eb-6e4d-419a-8aa2-49d113e11f4c}, !- Schedule Ruleset Name
  1,                                      !- Rule Order
  {0b995155-3a0c-41de-811c-256ac558c588}, !- Day Schedule Name
  ,                                       !- Apply Sunday
  Yes,                                    !- Apply Monday
  Yes,                                    !- Apply Tuesday
  Yes,                                    !- Apply Wednesday
  Yes,                                    !- Apply Thursday
  Yes;                                    !- Apply Friday

OS:Schedule:Day,
  {0b995155-3a0c-41de-811c-256ac558c588}, !- Handle
  Medium Office Number of People Weekdays Schedule, !- Name
  {6379872a-37b6-4ec0-8551-676f8da4341f}, !- Schedule Type Limits Name
  ,                                       !- Interpolate to Timestep
  6,                                      !- Hour 1
  0,                                      !- Minute 1
  0,                                      !- Value Until Time 1
  7,                                      !- Hour 2
  0,                                      !- Minute 2
  0.1,                                    !- Value Until Time 2
  8,                                      !- Hour 3
  0,                                      !- Minute 3
  0.2,                                    !- Value Until Time 3
  12,                                     !- Hour 4
  0,                                      !- Minute 4
  0.95,                                   !- Value Until Time 4
  13,                                     !- Hour 5
  0,                                      !- Minute 5
  0.5,                                    !- Value Until Time 5
  17,                                     !- Hour 6
  0,                                      !- Minute 6
  0.95,                                   !- Value Until Time 6
  18,                                     !- Hour 7
  0,                                      !- Minute 7
  0.7,                                    !- Value Until Time 7
  20,                                     !- Hour 8
  0,                                      !- Minute 8
  0.4,                                    !- Value Until Time 8
  22,                                     !- Hour 9
  0,                                      !- Minute 9
  0.1,                                    !- Value Until Time 9
  24,                                     !- Hour 10
  0,                                      !- Minute 10
  0.05;                                   !- Value Until Time 10

OS:Schedule:Rule,
  {eab91c6f-42fb-4baa-8ff0-645eb438aa5b}, !- Handle
  Medium Office Number of People Schedule Saturday Rule, !- Name
  {0b26b2eb-6e4d-419a-8aa2-49d113e11f4c}, !- Schedule Ruleset Name
  0,                                      !- Rule Order
  {1e37e441-1510-470f-8d68-467292492b98}, !- Day Schedule Name
  ,                                       !- Apply Sunday
  ,                                       !- Apply Monday
  ,                                       !- Apply Tuesday
  ,                                       !- Apply Wednesday
  ,                                       !- Apply Thursday
  ,                                       !- Apply Friday
  Yes;                                    !- Apply Saturday

OS:Schedule:Day,
  {1e37e441-1510-470f-8d68-467292492b98}, !- Handle
  Medium Office Number of People Saturday Schedule, !- Name
  {6379872a-37b6-4ec0-8551-676f8da4341f}, !- Schedule Type Limits Name
  ,                                       !- Interpolate to Timestep
  6,                                      !- Hour 1
  0,                                      !- Minute 1
  0,                                      !- Value Until Time 1
  8,                                      !- Hour 2
  0,                                      !- Minute 2
  0.1,                                    !- Value Until Time 2
  14,                                     !- Hour 3
  0,                                      !- Minute 3
  0.5,                                    !- Value Until Time 3
  17,                                     !- Hour 4
  0,                                      !- Minute 4
  0.1,                                    !- Value Until Time 4
  24,                                     !- Hour 5
  0,                                      !- Minute 5
  0;                                      !- Value Until Time 5

OS:ScheduleTypeLimits,
  {6379872a-37b6-4ec0-8551-676f8da4341f}, !- Handle
  Fractional,                             !- Name
  0,                                      !- Lower Limit Value {BasedOnField A4}
  1,                                      !- Upper Limit Value {BasedOnField A4}
  Continuous;                             !- Numeric Type

OS:Schedule:Ruleset,
  {2a5a9c34-248e-4635-ad8f-6a7080abf673}, !- Handle
  Medium Office People Activity Level Schedule, !- Name
  {afc0dc86-92cf-4507-8757-2d05a728d7cb}, !- Schedule Type Limits Name
  {af675f14-2ee1-4eed-b5e4-a9ee680dc4ce}; !- Default Day Schedule Name

OS:Schedule:Day,
  {af675f14-2ee1-4eed-b5e4-a9ee680dc4ce}, !- Handle
  Medium Office People Activity Level All Days Schedule, !- Name
  {afc0dc86-92cf-4507-8757-2d05a728d7cb}, !- Schedule Type Limits Name
  ,                                       !- Interpolate to Timestep
  24,                                     !- Hour 1
  0,                                      !- Minute 1
  120;                                    !- Value Until Time 1

OS:ScheduleTypeLimits,
  {afc0dc86-92cf-4507-8757-2d05a728d7cb}, !- Handle
  ActivityLevel,                          !- Name
  0,                                      !- Lower Limit Value {BasedOnField A4}
  ,                                       !- Upper Limit Value {BasedOnField A4}
  Continuous,                             !- Numeric Type
  ActivityLevel;                          !- Unit Type

OS:Schedule:Ruleset,
  {5cb16a94-b0de-4c02-b4ae-2c7cde4bebc3}, !- Handle
  Medium Office Lighting Schedule,        !- Name
  {6379872a-37b6-4ec0-8551-676f8da4341f}, !- Schedule Type Limits Name
  {162db7f1-2ca1-47a5-bc1f-020c22f77d45}, !- Default Day Schedule Name
  {6802d77d-c68f-4956-b1ec-a84f0bc07467}, !- Summer Design Day Schedule Name
  {3a7c51f1-298e-4d6d-b49a-7467fe76afa8}; !- Winter Design Day Schedule Name

OS:Schedule:Day,
  {162db7f1-2ca1-47a5-bc1f-020c22f77d45}, !- Handle
  Medium Office Lighting All Other Days Schedule, !- Name
  {6379872a-37b6-4ec0-8551-676f8da4341f}, !- Schedule Type Limits Name
  ,                                       !- Interpolate to Timestep
  24,                                     !- Hour 1
  0,                                      !- Minute 1
  0.05;                                   !- Value Until Time 1

OS:Schedule:Day,
  {f3b6aec9-5884-4c73-b8de-959956fddf02}, !- Handle
  Medium Office Lighting Summer Design Day Schedule, !- Name
  ,                                       !- Schedule Type Limits Name
  ,                                       !- Interpolate to Timestep
  6,                                      !- Hour 1
  0,                                      !- Minute 1
  1,                                      !- Value Until Time 1
  24,                                     !- Hour 2
  0,                                      !- Minute 2
  0;                                      !- Value Until Time 2

OS:Schedule:Day,
  {6802d77d-c68f-4956-b1ec-a84f0bc07467}, !- Handle
  Medium Office Lighting Summer Design Day Schedule 1, !- Name
  {6379872a-37b6-4ec0-8551-676f8da4341f}, !- Schedule Type Limits Name
  ,                                       !- Interpolate to Timestep
  6,                                      !- Hour 1
  0,                                      !- Minute 1
  1,                                      !- Value Until Time 1
  24,                                     !- Hour 2
  0,                                      !- Minute 2
  0;                                      !- Value Until Time 2

OS:Schedule:Day,
  {303b00be-9162-4852-ad4d-9559fd4f4334}, !- Handle
  Medium Office Lighting Winter Design Day Schedule, !- Name
  ,                                       !- Schedule Type Limits Name
  ,                                       !- Interpolate to Timestep
  24,                                     !- Hour 1
  0,                                      !- Minute 1
  0;                                      !- Value Until Time 1

OS:Schedule:Day,
  {3a7c51f1-298e-4d6d-b49a-7467fe76afa8}, !- Handle
  Medium Office Lighting Winter Design Day Schedule 1, !- Name
  {6379872a-37b6-4ec0-8551-676f8da4341f}, !- Schedule Type Limits Name
  ,                                       !- Interpolate to Timestep
  24,                                     !- Hour 1
  0,                                      !- Minute 1
  0;                                      !- Value Until Time 1

OS:Schedule:Rule,
  {b40906df-ae47-4bc5-9a6a-6090281b2d95}, !- Handle
  Medium Office Lighting Schedule Weekdays Rule, !- Name
  {5cb16a94-b0de-4c02-b4ae-2c7cde4bebc3}, !- Schedule Ruleset Name
  1,                                      !- Rule Order
  {cb470d9f-67ff-4074-9714-4654c510e9b4}, !- Day Schedule Name
  ,                                       !- Apply Sunday
  Yes,                                    !- Apply Monday
  Yes,                                    !- Apply Tuesday
  Yes,                                    !- Apply Wednesday
  Yes,                                    !- Apply Thursday
  Yes;                                    !- Apply Friday

OS:Schedule:Day,
  {cb470d9f-67ff-4074-9714-4654c510e9b4}, !- Handle
  Medium Office Lighting Weekdays Schedule, !- Name
  {6379872a-37b6-4ec0-8551-676f8da4341f}, !- Schedule Type Limits Name
  ,                                       !- Interpolate to Timestep
  5,                                      !- Hour 1
  0,                                      !- Minute 1
  0.05,                                   !- Value Until Time 1
  7,                                      !- Hour 2
  0,                                      !- Minute 2
  0.1,                                    !- Value Until Time 2
  8,                                      !- Hour 3
  0,                                      !- Minute 3
  0.3,                                    !- Value Until Time 3
  17,                                     !- Hour 4
  0,                                      !- Minute 4
  0.9,                                    !- Value Until Time 4
  18,                                     !- Hour 5
  0,                                      !- Minute 5
  0.7,                                    !- Value Until Time 5
  20,                                     !- Hour 6
  0,                                      !- Minute 6
  0.5,                                    !- Value Until Time 6
  22,                                     !- Hour 7
  0,                                      !- Minute 7
  0.3,                                    !- Value Until Time 7
  23,                                     !- Hour 8
  0,                                      !- Minute 8
  0.1,                                    !- Value Until Time 8
  24,                                     !- Hour 9
  0,                                      !- Minute 9
  0.05;                                   !- Value Until Time 9

OS:Schedule:Rule,
  {40317f23-aa9a-4857-a00b-c51f6020e740}, !- Handle
  Medium Office Lighting Schedule Saturday Rule, !- Name
  {5cb16a94-b0de-4c02-b4ae-2c7cde4bebc3}, !- Schedule Ruleset Name
  0,                                      !- Rule Order
  {96079642-d543-45d6-ba1c-e1c24737cfba}, !- Day Schedule Name
  ,                                       !- Apply Sunday
  ,                                       !- Apply Monday
  ,                                       !- Apply Tuesday
  ,                                       !- Apply Wednesday
  ,                                       !- Apply Thursday
  ,                                       !- Apply Friday
  Yes;                                    !- Apply Saturday

OS:Schedule:Day,
  {96079642-d543-45d6-ba1c-e1c24737cfba}, !- Handle
  Medium Office Lighting Saturday Schedule, !- Name
  {6379872a-37b6-4ec0-8551-676f8da4341f}, !- Schedule Type Limits Name
  ,                                       !- Interpolate to Timestep
  6,                                      !- Hour 1
  0,                                      !- Minute 1
  0.05,                                   !- Value Until Time 1
  8,                                      !- Hour 2
  0,                                      !- Minute 2
  0.1,                                    !- Value Until Time 2
  14,                                     !- Hour 3
  0,                                      !- Minute 3
  0.5,                                    !- Value Until Time 3
  17,                                     !- Hour 4
  0,                                      !- Minute 4
  0.15,                                   !- Value Until Time 4
  24,                                     !- Hour 5
  0,                                      !- Minute 5
  0.05;                                   !- Value Until Time 5

OS:Schedule:Ruleset,
  {864818f1-5d2d-43d9-be76-0e73060992cf}, !- Handle
  Medium Office Electric Equipment Schedule, !- Name
  {6379872a-37b6-4ec0-8551-676f8da4341f}, !- Schedule Type Limits Name
  {23732499-0ef3-452f-9d7e-4656556f781e}, !- Default Day Schedule Name
  {abcbc620-f64e-4662-961f-6b0df3b7be98}, !- Summer Design Day Schedule Name
  {e82bfe44-4227-4826-9ae8-dacf38e0f789}; !- Winter Design Day Schedule Name

OS:Schedule:Day,
  {23732499-0ef3-452f-9d7e-4656556f781e}, !- Handle
  Medium Office Electric Equipment All Other Days Schedule, !- Name
  {6379872a-37b6-4ec0-8551-676f8da4341f}, !- Schedule Type Limits Name
  ,                                       !- Interpolate to Timestep
  24,                                     !- Hour 1
  0,                                      !- Minute 1
  0.3;                                    !- Value Until Time 1

OS:Schedule:Day,
  {54b611cf-9cb0-4d22-a45a-d9208c6073fd}, !- Handle
  Medium Office Electric Equipment Summer Design Day Schedule, !- Name
  ,                                       !- Schedule Type Limits Name
  ,                                       !- Interpolate to Timestep
  6,                                      !- Hour 1
  0,                                      !- Minute 1
  1,                                      !- Value Until Time 1
  24,                                     !- Hour 2
  0,                                      !- Minute 2
  0;                                      !- Value Until Time 2

OS:Schedule:Day,
  {abcbc620-f64e-4662-961f-6b0df3b7be98}, !- Handle
  Medium Office Electric Equipment Summer Design Day Schedule 1, !- Name
  {6379872a-37b6-4ec0-8551-676f8da4341f}, !- Schedule Type Limits Name
  ,                                       !- Interpolate to Timestep
  6,                                      !- Hour 1
  0,                                      !- Minute 1
  1,                                      !- Value Until Time 1
  24,                                     !- Hour 2
  0,                                      !- Minute 2
  0;                                      !- Value Until Time 2

OS:Schedule:Day,
  {e9791282-aaff-4ab4-9d0d-88a2acd2aea6}, !- Handle
  Medium Office Electric Equipment Winter Design Day Schedule, !- Name
  ,                                       !- Schedule Type Limits Name
  ,                                       !- Interpolate to Timestep
  24,                                     !- Hour 1
  0,                                      !- Minute 1
  0;                                      !- Value Until Time 1

OS:Schedule:Day,
  {e82bfe44-4227-4826-9ae8-dacf38e0f789}, !- Handle
  Medium Office Electric Equipment Winter Design Day Schedule 1, !- Name
  {6379872a-37b6-4ec0-8551-676f8da4341f}, !- Schedule Type Limits Name
  ,                                       !- Interpolate to Timestep
  24,                                     !- Hour 1
  0,                                      !- Minute 1
  0;                                      !- Value Until Time 1

OS:Schedule:Rule,
  {6bc5813d-51e5-4c20-b6ec-9481ce69cab5}, !- Handle
  Medium Office Electric Equipment Schedule Weekdays Rule, !- Name
  {864818f1-5d2d-43d9-be76-0e73060992cf}, !- Schedule Ruleset Name
  1,                                      !- Rule Order
  {6a495186-13a4-422a-ad59-fffa2c1fcf99}, !- Day Schedule Name
  ,                                       !- Apply Sunday
  Yes,                                    !- Apply Monday
  Yes,                                    !- Apply Tuesday
  Yes,                                    !- Apply Wednesday
  Yes,                                    !- Apply Thursday
  Yes;                                    !- Apply Friday

OS:Schedule:Day,
  {6a495186-13a4-422a-ad59-fffa2c1fcf99}, !- Handle
  Medium Office Electric Equipment Weekdays Schedule, !- Name
  {6379872a-37b6-4ec0-8551-676f8da4341f}, !- Schedule Type Limits Name
  ,                                       !- Interpolate to Timestep
  8,                                      !- Hour 1
  0,                                      !- Minute 1
  0.4,                                    !- Value Until Time 1
  12,                                     !- Hour 2
  0,                                      !- Minute 2
  0.9,                                    !- Value Until Time 2
  13,                                     !- Hour 3
  0,                                      !- Minute 3
  0.8,                                    !- Value Until Time 3
  17,                                     !- Hour 4
  0,                                      !- Minute 4
  0.9,                                    !- Value Until Time 4
  18,                                     !- Hour 5
  0,                                      !- Minute 5
  0.8,                                    !- Value Until Time 5
  20,                                     !- Hour 6
  0,                                      !- Minute 6
  0.6,                                    !- Value Until Time 6
  22,                                     !- Hour 7
  0,                                      !- Minute 7
  0.5,                                    !- Value Until Time 7
  24,                                     !- Hour 8
  0,                                      !- Minute 8
  0.4;                                    !- Value Until Time 8

OS:Schedule:Rule,
  {8a3833ef-a8d7-40bc-9e69-c00b33e4e2ab}, !- Handle
  Medium Office Electric Equipment Schedule Saturday Rule, !- Name
  {864818f1-5d2d-43d9-be76-0e73060992cf}, !- Schedule Ruleset Name
  0,                                      !- Rule Order
  {728d7536-2e1c-44d6-a555-d0a93a303cf2}, !- Day Schedule Name
  ,                                       !- Apply Sunday
  ,                                       !- Apply Monday
  ,                                       !- Apply Tuesday
  ,                                       !- Apply Wednesday