
OS:Version,
  {820c1998-cfe4-4475-acda-4cc92938a9d1}, !- Handle
  1.5.1;                                  !- Version Identifier

OS:SimulationControl,
  {eecb3e4a-53b5-44fc-ab95-0929cba5e70f}, !- Handle
  Yes,                                    !- Do Zone Sizing Calculation
  Yes,                                    !- Do System Sizing Calculation
  ,                                       !- Do Plant Sizing Calculation
  No,                                     !- Run Simulation for Sizing Periods
  Yes;                                    !- Run Simulation for Weather File Run Periods

OS:Timestep,
  {9d359e88-4973-428b-9d5a-8e3e8ef67d76}, !- Handle
  6;                                      !- Number of Timesteps per Hour

OS:RunPeriod,
  {32badebf-46b7-40c0-b33e-14dd17a9d182}, !- Handle
  Run Period 1,                           !- Name
  1,                                      !- Begin Month
  1,                                      !- Begin Day of Month
  12,                                     !- End Month
  31,                                     !- End Day of Month
  No,                                     !- Use Weather File Holidays and Special Days
  No,                                     !- Use Weather File Daylight Saving Period
  No,                                     !- Apply Weekend Holiday Rule
  Yes,                                    !- Use Weather File Rain Indicators
  Yes,                                    !- Use Weather File Snow Indicators
  1;                                      !- Number of Times Runperiod to be Repeated

OS:SurfaceConvectionAlgorithm:Inside,
  {c981f51a-b2fb-4b99-8092-959c8fcec2e0}, !- Handle
  TARP;                                   !- Algorithm

OS:SurfaceConvectionAlgorithm:Outside,
  {142a2f46-b4c0-42cc-9820-b30625634dda}, !- Handle
  DOE-2;                                  !- Algorithm

OS:HeatBalanceAlgorithm,
  {f26373eb-c727-4937-96eb-191f2de0c66d}, !- Handle
  ConductionTransferFunction,             !- Algorithm
  200;                                    !- Surface Temperature Upper Limit {F}

OS:ZoneAirHeatBalanceAlgorithm,
  {443f4a69-cc72-4b87-8765-9ebe632cfc60}, !- Handle
  AnalyticalSolution;                     !- Algorithm

OS:ConvergenceLimits,
  {4bfe74af-911c-4e7f-b727-a0d1b68373f4}; !- Handle

OS:ShadowCalculation,
  {55fb108c-c987-48b9-98a9-87bc9affbe3a}, !- Handle
  7,                                      !- Calculation Frequency
  15000;                                  !- Maximum Figures in Shadow Overlap Calculations

OS:Site,
  {38db1104-e801-4344-be52-3cb4f200dd42}, !- Handle
  Site 1,                                 !- Name
  41.77,                                  !- Latitude {deg}
  -87.75,                                 !- Longitude {deg}
  -6,                                     !- Time Zone {hr}
  190,                                    !- Elevation {m}
  ;                                       !- Terrain

OS:Site:GroundTemperature:BuildingSurface,
  {07d70e6d-a8b1-4868-9415-bb2e9a8eab79}, !- Handle
  19.527,                                 !- January Ground Temperature {C}
  19.502,                                 !- February Ground Temperature {C}
  19.536,                                 !- March Ground Temperature {C}
  19.598,                                 !- April Ground Temperature {C}
  20.002,                                 !- May Ground Temperature {C}
  21.64,                                  !- June Ground Temperature {C}
  22.225,                                 !- July Ground Temperature {C}
  22.375,                                 !- August Ground Temperature {C}
  21.449,                                 !- September Ground Temperature {C}
  20.121,                                 !- October Ground Temperature {C}
  19.802,                                 !- November Ground Temperature {C}
  19.633;                                 !- December Ground Temperature {C}

OS:Site:WaterMainsTemperature,
  {838723eb-502c-45b6-ad31-582c7efc82ed}, !- Handle
  Correlation,                            !- Calculation Method
  ,                                       !- Temperature Schedule Name
  9.69,                                   !- Annual Average Outdoor Air Temperature {C}
  28.1;                                   !- Maximum Difference In Monthly Average Outdoor Air Temperatures {deltaC}

OS:SizingPeriod:DesignDay,
  {8cd79bf1-98e1-4b61-9657-e052b9a72670}, !- Handle
  Sizing Period Design Day 1,             !- Name
  -20.6,                                  !- Maximum Dry-Bulb Temperature {C}
  0,                                      !- Daily Dry-Bulb Temperature Range {deltaC}
  -20.6,                                  !- Humidity Indicating Conditions at Maximum Dry-Bulb {BasedOnField A3}
  99063,                                  !- Barometric Pressure {Pa}
  4.9,                                    !- Wind Speed {m/s}
  270,                                    !- Wind Direction {deg}
  0,                                      !- Sky Clearness
  0,                                      !- Rain Indicator
  0,                                      !- Snow Indicator
  21,                                     !- Day of Month
  1,                                      !- Month
  WinterDesignDay,                        !- Day Type
  0,                                      !- Daylight Saving Time Indicator
  WetBulb,                                !- Humidity Indicating Type
  ,                                       !- Humidity Indicating Day Schedule Name
  DefaultMultipliers,                     !- Dry-Bulb Temperature Range Modifier Type
  ,                                       !- Dry-Bulb Temperature Range Modifier Schedule Name
  AshraeClearSky;                         !- Solar Model Indicator

OS:SizingPeriod:DesignDay,
  {e72b4a4d-3565-4649-bd3e-dd404e31c59b}, !- Handle
  Sizing Period Design Day 2,             !- Name
  33.2,                                   !- Maximum Dry-Bulb Temperature {C}
  10.7,                                   !- Daily Dry-Bulb Temperature Range {deltaC}
  23.8,                                   !- Humidity Indicating Conditions at Maximum Dry-Bulb {BasedOnField A3}
  99063,                                  !- Barometric Pressure {Pa}
  5.3,                                    !- Wind Speed {m/s}
  230,                                    !- Wind Direction {deg}
  1,                                      !- Sky Clearness
  0,                                      !- Rain Indicator
  0,                                      !- Snow Indicator
  21,                                     !- Day of Month
  7,                                      !- Month
  SummerDesignDay,                        !- Day Type
  0,                                      !- Daylight Saving Time Indicator
  WetBulb,                                !- Humidity Indicating Type
  ,                                       !- Humidity Indicating Day Schedule Name
  DefaultMultipliers,                     !- Dry-Bulb Temperature Range Modifier Type
  ,                                       !- Dry-Bulb Temperature Range Modifier Schedule Name
  AshraeClearSky;                         !- Solar Model Indicator

OS:ScheduleTypeLimits,
  {c76a0ed2-f264-4dcc-9bc5-4236052f465f}, !- Handle
  Temperature,                            !- Name
  -60,                                    !- Lower Limit Value {BasedOnField A4}
  200,                                    !- Upper Limit Value {BasedOnField A4}
  CONTINUOUS,                             !- Numeric Type
  Temperature;                            !- Unit Type

OS:DefaultScheduleSet,
  {ec1cecab-9ece-4cf9-a96b-409ed8867254}, !- Handle
  Default Schedules,                      !- Name
  ,                                       !- Hours of Operation Schedule Name
  {e8856532-7d07-4e77-ac84-f9dadd48a41c}, !- Number of People Schedule Name
  {b9721d0c-b745-4e45-9876-4e0b32d8c7f4}, !- People Activity Level Schedule Name
  {1ce3d54e-0cfe-4b76-84b6-35799e8da14e}, !- Lighting Schedule Name
  {39d4dc59-6228-4a1f-8ffe-1b93d88a964f}, !- Electric Equipment Schedule Name
  {abf5582d-c555-4d9f-9358-2f3bf00c5196}, !- Gas Equipment Schedule Name
  {1961064e-001f-4408-9329-a8b1ca27dce0}, !- Hot Water Equipment Schedule Name
  {3b089a36-19f4-4fa2-9983-84a41c20cc21}, !- Infiltration Schedule Name
  ,                                       !- Steam Equipment Schedule Name
  ;                                       !- Other Equipment Schedule Name

OS:Schedule:Ruleset,
  {e8856532-7d07-4e77-ac84-f9dadd48a41c}, !- Handle
  Medium Office Number of People Schedule, !- Name
  {e6ff539c-6d02-4ec9-b527-17d00a0f9764}, !- Schedule Type Limits Name
  {393d3d9b-ed05-4bde-8081-4f44284a4943}, !- Default Day Schedule Name
  {f430f58f-a278-4615-beee-8fce6c0f186f}; !- Summer Design Day Schedule Name

OS:Schedule:Day,
  {393d3d9b-ed05-4bde-8081-4f44284a4943}, !- Handle
  Medium Office Number of People All Other Days Schedule, !- Name
  {e6ff539c-6d02-4ec9-b527-17d00a0f9764}, !- Schedule Type Limits Name
  ,                                       !- Interpolate to Timestep
  24,                                     !- Hour 1
  0,                                      !- Minute 1
  0;                                      !- Value Until Time 1

OS:Schedule:Day,
  {899e0f78-1c41-4807-a988-a19b08e51ef6}, !- Handle
  Medium Office Number of People Summer Design Day Schedule, !- Name
  ,                                       !- Schedule Type Limits Name
  ,                                       !- Interpolate to Timestep
  6,                                      !- Hour 1
  0,                                      !- Minute 1
  0,                                      !- Value Until Time 1
  22,                                     !- Hour 2
  0,                                      !- Minute 2
  1,                                      !- Value Until Time 2
  24,                                     !- Hour 3
  0,                                      !- Minute 3
  0.05;                                   !- Value Until Time 3

OS:Schedule:Day,
  {f430f58f-a278-4615-beee-8fce6c0f186f}, !- Handle
  Medium Office Number of People Summer Design Day Schedule 1, !- Name
  {e6ff539c-6d02-4ec9-b527-17d00a0f9764}, !- Schedule Type Limits Name
  ,                                       !- Interpolate to Timestep
  6,                                      !- Hour 1
  0,                                      !- Minute 1
  0,                                      !- Value Until Time 1
  22,                                     !- Hour 2
  0,                                      !- Minute 2
  1,                                      !- Value Until Time 2
  24,                                     !- Hour 3
  0,                                      !- Minute 3
  0.05;                                   !- Value Until Time 3

OS:Schedule:Rule,
  {4a8c238f-26bf-4367-8a8d-ac8008327cb5}, !- Handle
  Medium Office Number of People Schedule Weekdays Rule, !- Name
  {e8856532-7d07-4e77-ac84-f9dadd48a41c}, !- Schedule Ruleset Name
  1,                                      !- Rule Order
  {845f0f13-3d47-43dc-8c4f-a561927bef16}, !- Day Schedule Name
  ,                                       !- Apply Sunday
  Yes,                                    !- Apply Monday
  Yes,                                    !- Apply Tuesday
  Yes,                                    !- Apply Wednesday
  Yes,                                    !- Apply Thursday
  Yes;                                    !- Apply Friday

OS:Schedule:Day,
  {845f0f13-3d47-43dc-8c4f-a561927bef16}, !- Handle
  Medium Office Number of People Weekdays Schedule, !- Name
  {e6ff539c-6d02-4ec9-b527-17d00a0f9764}, !- Schedule Type Limits Name
  ,                                       !- Interpolate to Timestep
  6,                                      !- Hour 1
  0,                                      !- Minute 1
  0,                                      !- Value Until Time 1
  7,                                      !- Hour 2
  0,                                      !- Minute 2
  0.1,                                    !- Value Until Time 2
  8,                                      !- Hour 3
  0,                                      !- Minute 3
  0.2,                                    !- Value Until Time 3
  12,                                     !- Hour 4
  0,                                      !- Minute 4
  0.95,                                   !- Value Until Time 4
  13,                                     !- Hour 5
  0,                                      !- Minute 5
  0.5,                                    !- Value Until Time 5
  17,                                     !- Hour 6
  0,                                      !- Minute 6
  0.95,                                   !- Value Until Time 6
  18,                                     !- Hour 7
  0,                                      !- Minute 7
  0.7,                                    !- Value Until Time 7
  20,                                     !- Hour 8
  0,                                      !- Minute 8
  0.4,                                    !- Value Until Time 8
  22,                                     !- Hour 9
  0,                                      !- Minute 9
  0.1,                                    !- Value Until Time 9
  24,                                     !- Hour 10
  0,                                      !- Minute 10
  0.05;                                   !- Value Until Time 10

OS:Schedule:Rule,
  {134192a7-55c3-471f-971f-b96d758f7b52}, !- Handle
  Medium Office Number of People Schedule Saturday Rule, !- Name
  {e8856532-7d07-4e77-ac84-f9dadd48a41c}, !- Schedule Ruleset Name
  0,                                      !- Rule Order
  {63451520-2daf-44f5-9628-e1eb1fbd2cd3}, !- Day Schedule Name
  ,                                       !- Apply Sunday
  ,                                       !- Apply Monday
  ,                                       !- Apply Tuesday
  ,                                       !- Apply Wednesday
  ,                                       !- Apply Thursday
  ,                                       !- Apply Friday
  Yes;                                    !- Apply Saturday

OS:Schedule:Day,
  {63451520-2daf-44f5-9628-e1eb1fbd2cd3}, !- Handle
  Medium Office Number of People Saturday Schedule, !- Name
  {e6ff539c-6d02-4ec9-b527-17d00a0f9764}, !- Schedule Type Limits Name
  ,                                       !- Interpolate to Timestep
  6,                                      !- Hour 1
  0,                                      !- Minute 1
  0,                                      !- Value Until Time 1
  8,                                      !- Hour 2
  0,                                      !- Minute 2
  0.1,                                    !- Value Until Time 2
  14,                                     !- Hour 3
  0,                                      !- Minute 3
  0.5,                                    !- Value Until Time 3
  17,                                     !- Hour 4
  0,                                      !- Minute 4
  0.1,                                    !- Value Until Time 4
  24,                                     !- Hour 5
  0,                                      !- Minute 5
  0;                                      !- Value Until Time 5

OS:ScheduleTypeLimits,
  {e6ff539c-6d02-4ec9-b527-17d00a0f9764}, !- Handle
  Fractional,                             !- Name
  0,                                      !- Lower Limit Value {BasedOnField A4}
  1,                                      !- Upper Limit Value {BasedOnField A4}
  Continuous;                             !- Numeric Type

OS:Schedule:Ruleset,
  {b9721d0c-b745-4e45-9876-4e0b32d8c7f4}, !- Handle
  Medium Office People Activity Level Schedule, !- Name
  {88d1d31e-2cf1-428a-9323-36f00dccd63e}, !- Schedule Type Limits Name
  {d93b9093-24ec-4f4c-82ca-2ba59df06936}; !- Default Day Schedule Name

OS:Schedule:Day,
  {d93b9093-24ec-4f4c-82ca-2ba59df06936}, !- Handle
  Medium Office People Activity Level All Days Schedule, !- Name
  {88d1d31e-2cf1-428a-9323-36f00dccd63e}, !- Schedule Type Limits Name
  ,                                       !- Interpolate to Timestep
  24,                                     !- Hour 1
  0,                                      !- Minute 1
  120;                                    !- Value Until Time 1

OS:ScheduleTypeLimits,
  {88d1d31e-2cf1-428a-9323-36f00dccd63e}, !- Handle
  ActivityLevel,                          !- Name
  0,                                      !- Lower Limit Value {BasedOnField A4}
  ,                                       !- Upper Limit Value {BasedOnField A4}
  Continuous,                             !- Numeric Type
  ActivityLevel;                          !- Unit Type

OS:Schedule:Ruleset,
  {1ce3d54e-0cfe-4b76-84b6-35799e8da14e}, !- Handle
  Medium Office Lighting Schedule,        !- Name
  {e6ff539c-6d02-4ec9-b527-17d00a0f9764}, !- Schedule Type Limits Name
  {c3aeafab-4c7f-4d0d-98f4-dd8aeadb47ba}, !- Default Day Schedule Name
  {00ffa7ab-5a36-4117-8f6c-266093ee2fc4}, !- Summer Design Day Schedule Name
  {e8b185c0-4ee8-46fa-a97f-f42883057741}; !- Winter Design Day Schedule Name

OS:Schedule:Day,
  {c3aeafab-4c7f-4d0d-98f4-dd8aeadb47ba}, !- Handle
  Medium Office Lighting All Other Days Schedule, !- Name
  {e6ff539c-6d02-4ec9-b527-17d00a0f9764}, !- Schedule Type Limits Name
  ,                                       !- Interpolate to Timestep
  24,                                     !- Hour 1
  0,                                      !- Minute 1
  0.05;                                   !- Value Until Time 1

OS:Schedule:Day,
  {71fcbe54-817f-46db-b14f-2edd4451f1e4}, !- Handle
  Medium Office Lighting Summer Design Day Schedule, !- Name
  ,                                       !- Schedule Type Limits Name
  ,                                       !- Interpolate to Timestep
  6,                                      !- Hour 1
  0,                                      !- Minute 1
  1,                                      !- Value Until Time 1
  24,                                     !- Hour 2
  0,                                      !- Minute 2
  0;                                      !- Value Until Time 2

OS:Schedule:Day,
  {00ffa7ab-5a36-4117-8f6c-266093ee2fc4}, !- Handle
  Medium Office Lighting Summer Design Day Schedule 1, !- Name
  {e6ff539c-6d02-4ec9-b527-17d00a0f9764}, !- Schedule Type Limits Name
  ,                                       !- Interpolate to Timestep
  6,                                      !- Hour 1
  0,                                      !- Minute 1
  1,                                      !- Value Until Time 1
  24,                                     !- Hour 2
  0,                                      !- Minute 2
  0;                                      !- Value Until Time 2

OS:Schedule:Day,
  {c1d30c1d-0feb-48a5-a0a2-dea639260d30}, !- Handle
  Medium Office Lighting Winter Design Day Schedule, !- Name
  ,                                       !- Schedule Type Limits Name
  ,                                       !- Interpolate to Timestep
  24,                                     !- Hour 1
  0,                                      !- Minute 1
  0;                                      !- Value Until Time 1

OS:Schedule:Day,
  {e8b185c0-4ee8-46fa-a97f-f42883057741}, !- Handle
  Medium Office Lighting Winter Design Day Schedule 1, !- Name
  {e6ff539c-6d02-4ec9-b527-17d00a0f9764}, !- Schedule Type Limits Name
  ,                                       !- Interpolate to Timestep
  24,                                     !- Hour 1
  0,                                      !- Minute 1
  0;                                      !- Value Until Time 1

OS:Schedule:Rule,
  {8522222e-4071-4a58-87bc-993871d0c893}, !- Handle
  Medium Office Lighting Schedule Weekdays Rule, !- Name
  {1ce3d54e-0cfe-4b76-84b6-35799e8da14e}, !- Schedule Ruleset Name
  1,                                      !- Rule Order
  {d92f23a0-20aa-460a-bafd-a0a0d6acef7e}, !- Day Schedule Name
  ,                                       !- Apply Sunday
  Yes,                                    !- Apply Monday
  Yes,                                    !- Apply Tuesday
  Yes,                                    !- Apply Wednesday
  Yes,                                    !- Apply Thursday
  Yes;                                    !- Apply Friday

OS:Schedule:Day,
  {d92f23a0-20aa-460a-bafd-a0a0d6acef7e}, !- Handle
  Medium Office Lighting Weekdays Schedule, !- Name
  {e6ff539c-6d02-4ec9-b527-17d00a0f9764}, !- Schedule Type Limits Name
  ,                                       !- Interpolate to Timestep
  5,                                      !- Hour 1
  0,                                      !- Minute 1
  0.05,                                   !- Value Until Time 1
  7,                                      !- Hour 2
  0,                                      !- Minute 2
  0.1,                                    !- Value Until Time 2
  8,                                      !- Hour 3
  0,                                      !- Minute 3
  0.3,                                    !- Value Until Time 3
  17,                                     !- Hour 4
  0,                                      !- Minute 4
  0.9,                                    !- Value Until Time 4
  18,                                     !- Hour 5
  0,                                      !- Minute 5
  0.7,                                    !- Value Until Time 5
  20,                                     !- Hour 6
  0,                                      !- Minute 6
  0.5,                                    !- Value Until Time 6
  22,                                     !- Hour 7
  0,                                      !- Minute 7
  0.3,                                    !- Value Until Time 7
  23,                                     !- Hour 8
  0,                                      !- Minute 8
  0.1,                                    !- Value Until Time 8
  24,                                     !- Hour 9
  0,                                      !- Minute 9
  0.05;                                   !- Value Until Time 9

OS:Schedule:Rule,
  {97c4c5fe-da21-4149-8ee1-10c91933c2e6}, !- Handle
  Medium Office Lighting Schedule Saturday Rule, !- Name
  {1ce3d54e-0cfe-4b76-84b6-35799e8da14e}, !- Schedule Ruleset Name
  0,                                      !- Rule Order
  {dd510233-49b2-4ae8-9918-f4e10495039d}, !- Day Schedule Name
  ,                                       !- Apply Sunday
  ,                                       !- Apply Monday
  ,                                       !- Apply Tuesday
  ,                                       !- Apply Wednesday
  ,                                       !- Apply Thursday
  ,                                       !- Apply Friday
  Yes;                                    !- Apply Saturday

OS:Schedule:Day,
  {dd510233-49b2-4ae8-9918-f4e10495039d}, !- Handle
  Medium Office Lighting Saturday Schedule, !- Name
  {e6ff539c-6d02-4ec9-b527-17d00a0f9764}, !- Schedule Type Limits Name
  ,                                       !- Interpolate to Timestep
  6,                                      !- Hour 1
  0,                                      !- Minute 1
  0.05,                                   !- Value Until Time 1
  8,                                      !- Hour 2
  0,                                      !- Minute 2
  0.1,                                    !- Value Until Time 2
  14,                                     !- Hour 3
  0,                                      !- Minute 3
  0.5,                                    !- Value Until Time 3
  17,                                     !- Hour 4
  0,                                      !- Minute 4
  0.15,                                   !- Value Until Time 4
  24,                                     !- Hour 5
  0,                                      !- Minute 5
  0.05;                                   !- Value Until Time 5

OS:Schedule:Ruleset,
  {39d4dc59-6228-4a1f-8ffe-1b93d88a964f}, !- Handle
  Medium Office Electric Equipment Schedule, !- Name
  {e6ff539c-6d02-4ec9-b527-17d00a0f9764}, !- Schedule Type Limits Name
  {f3fa9f55-2fd0-434a-9c37-daed2b2fa587}, !- Default Day Schedule Name
  {fc60fb7d-a149-4738-825b-0a9255e3e75f}, !- Summer Design Day Schedule Name
  {d54779c3-522e-4f63-944a-322a70c5dfd0}; !- Winter Design Day Schedule Name

OS:Schedule:Day,
  {f3fa9f55-2fd0-434a-9c37-daed2b2fa587}, !- Handle
  Medium Office Electric Equipment All Other Days Schedule, !- Name
  {e6ff539c-6d02-4ec9-b527-17d00a0f9764}, !- Schedule Type Limits Name
  ,                                       !- Interpolate to Timestep
  24,                                     !- Hour 1
  0,                                      !- Minute 1
  0.3;                                    !- Value Until Time 1

OS:Schedule:Day,
  {a9c9e941-09f5-4407-924e-9231df4ccff6}, !- Handle
  Medium Office Electric Equipment Summer Design Day Schedule, !- Name
  ,                                       !- Schedule Type Limits Name
  ,                                       !- Interpolate to Timestep
  6,                                      !- Hour 1
  0,                                      !- Minute 1
  1,                                      !- Value Until Time 1
  24,                                     !- Hour 2
  0,                                      !- Minute 2
  0;                                      !- Value Until Time 2

OS:Schedule:Day,
  {fc60fb7d-a149-4738-825b-0a9255e3e75f}, !- Handle
  Medium Office Electric Equipment Summer Design Day Schedule 1, !- Name
  {e6ff539c-6d02-4ec9-b527-17d00a0f9764}, !- Schedule Type Limits Name
  ,                                       !- Interpolate to Timestep
  6,                                      !- Hour 1
  0,                                      !- Minute 1
  1,                                      !- Value Until Time 1
  24,                                     !- Hour 2
  0,                                      !- Minute 2
  0;                                      !- Value Until Time 2

OS:Schedule:Day,
  {b8cc7ef6-d1dd-4b58-bb0a-6ca863bca92d}, !- Handle
  Medium Office Electric Equipment Winter Design Day Schedule, !- Name
  ,                                       !- Schedule Type Limits Name
  ,                                       !- Interpolate to Timestep
  24,                                     !- Hour 1
  0,                                      !- Minute 1
  0;                                      !- Value Until Time 1

OS:Schedule:Day,
  {d54779c3-522e-4f63-944a-322a70c5dfd0}, !- Handle
  Medium Office Electric Equipment Winter Design Day Schedule 1, !- Name
  {e6ff539c-6d02-4ec9-b527-17d00a0f9764}, !- Schedule Type Limits Name
  ,                                       !- Interpolate to Timestep
  24,                                     !- Hour 1
  0,                                      !- Minute 1
  0;                                      !- Value Until Time 1

OS:Schedule:Rule,
  {1355dafa-a463-4c3d-8e5d-5becb5497aaa}, !- Handle
  Medium Office Electric Equipment Schedule Weekdays Rule, !- Name
  {39d4dc59-6228-4a1f-8ffe-1b93d88a964f}, !- Schedule Ruleset Name
  1,                                      !- Rule Order
  {857b615f-0057-47c1-88fb-d453827563ca}, !- Day Schedule Name
  ,                                       !- Apply Sunday
  Yes,                                    !- Apply Monday
  Yes,                                    !- Apply Tuesday
  Yes,                                    !- Apply Wednesday
  Yes,                                    !- Apply Thursday
  Yes;                                    !- Apply Friday

OS:Schedule:Day,
  {857b615f-0057-47c1-88fb-d453827563ca}, !- Handle
  Medium Office Electric Equipment Weekdays Schedule, !- Name
  {e6ff539c-6d02-4ec9-b527-17d00a0f9764}, !- Schedule Type Limits Name
  ,                                       !- Interpolate to Timestep
  8,                                      !- Hour 1
  0,                                      !- Minute 1
  0.4,                                    !- Value Until Time 1
  12,                                     !- Hour 2
  0,                                      !- Minute 2
  0.9,                                    !- Value Until Time 2
  13,                                     !- Hour 3
  0,                                      !- Minute 3
  0.8,                                    !- Value Until Time 3
  17,                                     !- Hour 4
  0,                                      !- Minute 4
  0.9,                                    !- Value Until Time 4
  18,                                     !- Hour 5
  0,                                      !- Minute 5
  0.8,                                    !- Value Until Time 5
  20,                                     !- Hour 6
  0,                                      !- Minute 6
  0.6,                                    !- Value Until Time 6
  22,                                     !- Hour 7
  0,                                      !- Minute 7
  0.5,                                    !- Value Until Time 7
  24,                                     !- Hour 8
  0,                                      !- Minute 8
  0.4;                                    !- Value Until Time 8

OS:Schedule:Rule,
  {2e75757d-41f7-4a5c-8055-34e93c737c90}, !- Handle
  Medium Office Electric Equipment Schedule Saturday Rule, !- Name
  {39d4dc59-6228-4a1f-8ffe-1b93d88a964f}, !- Schedule Ruleset Name
  0,                                      !- Rule Order
  {98c710bc-d698-4e3a-9edb-a9ebdea2015a}, !- Day Schedule Name
  ,                                       !- Apply Sunday
  ,                                       !- Apply Monday
  ,                                       !- Apply Tuesday
  ,                                       !- Apply Wednesday