
OS:Version,
  {1d85d12f-ce2c-4181-b642-919258a371ee}, !- Handle
  1.9.2;                                  !- Version Identifier

OS:SimulationControl,
  {0fd557b5-be79-4ffe-ab11-c42ce1cdc145}, !- Handle
  Yes,                                    !- Do Zone Sizing Calculation
  Yes,                                    !- Do System Sizing Calculation
  ,                                       !- Do Plant Sizing Calculation
  No,                                     !- Run Simulation for Sizing Periods
  Yes;                                    !- Run Simulation for Weather File Run Periods

OS:Timestep,
  {0b397717-6495-4c41-a23b-f312940c4904}, !- Handle
  6;                                      !- Number of Timesteps per Hour

OS:RunPeriod,
  {24ceff89-a858-419f-b975-6caee0f11019}, !- Handle
  Run Period 1,                           !- Name
  1,                                      !- Begin Month
  1,                                      !- Begin Day of Month
  12,                                     !- End Month
  31,                                     !- End Day of Month
  No,                                     !- Use Weather File Holidays and Special Days
  No,                                     !- Use Weather File Daylight Saving Period
  No,                                     !- Apply Weekend Holiday Rule
  Yes,                                    !- Use Weather File Rain Indicators
  Yes,                                    !- Use Weather File Snow Indicators
  1;                                      !- Number of Times Runperiod to be Repeated

OS:SurfaceConvectionAlgorithm:Inside,
  {dc965a3d-ef71-4bfb-b434-c6e76b917453}, !- Handle
  TARP;                                   !- Algorithm

OS:SurfaceConvectionAlgorithm:Outside,
  {bfd983eb-a74e-4723-b906-9035cf828f83}, !- Handle
  DOE-2;                                  !- Algorithm

OS:HeatBalanceAlgorithm,
  {a1bd437f-5c9b-4fd4-bf28-70b655097dd0}, !- Handle
  ConductionTransferFunction,             !- Algorithm
  200;                                    !- Surface Temperature Upper Limit {C}

OS:ZoneAirHeatBalanceAlgorithm,
  {42905053-927f-47bc-85e5-9fe6bec5f947}, !- Handle
  ThirdOrderBackwardDifference;           !- Algorithm

OS:ConvergenceLimits,
  {fc41fecd-ef73-400e-a16c-42625ed3c5ab}, !- Handle
  1;                                      !- Minimum System Timestep {minutes}

OS:ShadowCalculation,
  {1ef38954-9e64-4305-bd2a-ac603d03a8bb}, !- Handle
  20,                                     !- Calculation Frequency
  15000;                                  !- Maximum Figures in Shadow Overlap Calculations

OS:Site,
  {25c8f04c-b0e5-44ad-b89b-84cab7c7af8c}, !- Handle
  Site 1,                                 !- Name
  41.77,                                  !- Latitude {deg}
  -87.75,                                 !- Longitude {deg}
  -6,                                     !- Time Zone {hr}
  190,                                    !- Elevation {m}
  ;                                       !- Terrain

OS:Site:GroundTemperature:BuildingSurface,
  {6e077328-a1db-4448-9acf-a2cc3a475972}, !- Handle
  19.527,                                 !- January Ground Temperature {C}
  19.502,                                 !- February Ground Temperature {C}
  19.536,                                 !- March Ground Temperature {C}
  19.598,                                 !- April Ground Temperature {C}
  20.002,                                 !- May Ground Temperature {C}
  21.64,                                  !- June Ground Temperature {C}
  22.225,                                 !- July Ground Temperature {C}
  22.375,                                 !- August Ground Temperature {C}
  21.449,                                 !- September Ground Temperature {C}
  20.121,                                 !- October Ground Temperature {C}
  19.802,                                 !- November Ground Temperature {C}
  19.633;                                 !- December Ground Temperature {C}

OS:Site:WaterMainsTemperature,
  {d2b14d7a-bc43-4d3b-9db7-b50aee5d8d32}, !- Handle
  Correlation,                            !- Calculation Method
  ,                                       !- Temperature Schedule Name
  9.69,                                   !- Annual Average Outdoor Air Temperature {C}
  28.1;                                   !- Maximum Difference In Monthly Average Outdoor Air Temperatures {deltaC}

OS:SizingPeriod:DesignDay,
  {d78956de-5f49-49d2-a99f-17afbec0ac0a}, !- Handle
  Sizing Period Design Day 1,             !- Name
  -20.6,                                  !- Maximum Dry-Bulb Temperature {C}
  0,                                      !- Daily Dry-Bulb Temperature Range {deltaC}
  -20.6,                                  !- Humidity Indicating Conditions at Maximum Dry-Bulb {BasedOnField A3}
  99063,                                  !- Barometric Pressure {Pa}
  4.9,                                    !- Wind Speed {m/s}
  270,                                    !- Wind Direction {deg}
  0,                                      !- Sky Clearness
  0,                                      !- Rain Indicator
  0,                                      !- Snow Indicator
  21,                                     !- Day of Month
  1,                                      !- Month
  WinterDesignDay,                        !- Day Type
  0,                                      !- Daylight Saving Time Indicator
  WetBulb,                                !- Humidity Indicating Type
  ,                                       !- Humidity Indicating Day Schedule Name
  DefaultMultipliers,                     !- Dry-Bulb Temperature Range Modifier Type
  ,                                       !- Dry-Bulb Temperature Range Modifier Schedule Name
  AshraeClearSky;                         !- Solar Model Indicator

OS:SizingPeriod:DesignDay,
  {19787ee1-8bed-4ca1-aba6-f27e21072f16}, !- Handle
  Sizing Period Design Day 2,             !- Name
  33.2,                                   !- Maximum Dry-Bulb Temperature {C}
  10.7,                                   !- Daily Dry-Bulb Temperature Range {deltaC}
  23.8,                                   !- Humidity Indicating Conditions at Maximum Dry-Bulb {BasedOnField A3}
  99063,                                  !- Barometric Pressure {Pa}
  5.3,                                    !- Wind Speed {m/s}
  230,                                    !- Wind Direction {deg}
  1,                                      !- Sky Clearness
  0,                                      !- Rain Indicator
  0,                                      !- Snow Indicator
  21,                                     !- Day of Month
  7,                                      !- Month
  SummerDesignDay,                        !- Day Type
  0,                                      !- Daylight Saving Time Indicator
  WetBulb,                                !- Humidity Indicating Type
  ,                                       !- Humidity Indicating Day Schedule Name
  DefaultMultipliers,                     !- Dry-Bulb Temperature Range Modifier Type
  ,                                       !- Dry-Bulb Temperature Range Modifier Schedule Name
  AshraeClearSky;                         !- Solar Model Indicator

OS:ScheduleTypeLimits,
  {4d2d6829-ed4e-4474-aed4-5bb362484e50}, !- Handle
  Temperature,                            !- Name
  -60,                                    !- Lower Limit Value {BasedOnField A4}
  200,                                    !- Upper Limit Value {BasedOnField A4}
  CONTINUOUS,                             !- Numeric Type
  Temperature;                            !- Unit Type

OS:DefaultScheduleSet,
  {145a616e-2e33-4811-ad39-7769f17c4732}, !- Handle
  Default Schedules,                      !- Name
  ,                                       !- Hours of Operation Schedule Name
  {15f79f90-bedb-45f4-81be-fd88bc105ae0}, !- Number of People Schedule Name
  {50ae24af-4b79-4331-a052-daea7ebbe407}, !- People Activity Level Schedule Name
  {30c069eb-13ee-4a60-aefc-c8c5f56979ec}, !- Lighting Schedule Name
  {928944e0-3765-46ec-b8bc-795a238dabf0}, !- Electric Equipment Schedule Name
  {c1280818-1de0-4779-b8d4-21dcae1eb9e7}, !- Gas Equipment Schedule Name
  {055ec5e9-f00e-4341-8816-4a55f7939f75}, !- Hot Water Equipment Schedule Name
  {a3dcbb89-d1d6-4e9b-a145-568d26b84594}, !- Infiltration Schedule Name
  ,                                       !- Steam Equipment Schedule Name
  ;                                       !- Other Equipment Schedule Name

OS:Schedule:Ruleset,
  {15f79f90-bedb-45f4-81be-fd88bc105ae0}, !- Handle
  Medium Office Number of People Schedule, !- Name
  {f7b8c92f-5cb6-4f29-b815-81ad3361628b}, !- Schedule Type Limits Name
  {97c4726b-dbd9-4ffc-9f03-bc357e653679}, !- Default Day Schedule Name
  {b830481b-36fa-4c79-9e85-16779549cdf1}; !- Summer Design Day Schedule Name

OS:Schedule:Day,
  {97c4726b-dbd9-4ffc-9f03-bc357e653679}, !- Handle
  Medium Office Number of People All Other Days Schedule, !- Name
  {f7b8c92f-5cb6-4f29-b815-81ad3361628b}, !- Schedule Type Limits Name
  ,                                       !- Interpolate to Timestep
  24,                                     !- Hour 1
  0,                                      !- Minute 1
  0;                                      !- Value Until Time 1

OS:Schedule:Day,
  {c641c190-c942-4e5d-a13d-7354b2f2c753}, !- Handle
  Medium Office Number of People Summer Design Day Schedule, !- Name
  ,                                       !- Schedule Type Limits Name
  ,                                       !- Interpolate to Timestep
  6,                                      !- Hour 1
  0,                                      !- Minute 1
  0,                                      !- Value Until Time 1
  22,                                     !- Hour 2
  0,                                      !- Minute 2
  1,                                      !- Value Until Time 2
  24,                                     !- Hour 3
  0,                                      !- Minute 3
  0.05;                                   !- Value Until Time 3

OS:Schedule:Day,
  {b830481b-36fa-4c79-9e85-16779549cdf1}, !- Handle
  Medium Office Number of People Summer Design Day Schedule 1, !- Name
  {f7b8c92f-5cb6-4f29-b815-81ad3361628b}, !- Schedule Type Limits Name
  ,                                       !- Interpolate to Timestep
  6,                                      !- Hour 1
  0,                                      !- Minute 1
  0,                                      !- Value Until Time 1
  22,                                     !- Hour 2
  0,                                      !- Minute 2
  1,                                      !- Value Until Time 2
  24,                                     !- Hour 3
  0,                                      !- Minute 3
  0.05;                                   !- Value Until Time 3

OS:Schedule:Rule,
  {a42218e7-03c3-412d-adb8-db993e49e8bc}, !- Handle
  Medium Office Number of People Schedule Weekdays Rule, !- Name
  {15f79f90-bedb-45f4-81be-fd88bc105ae0}, !- Schedule Ruleset Name
  1,                                      !- Rule Order
  {bf13f95d-5d4b-42d8-979f-ff510cce4baa}, !- Day Schedule Name
  ,                                       !- Apply Sunday
  Yes,                                    !- Apply Monday
  Yes,                                    !- Apply Tuesday
  Yes,                                    !- Apply Wednesday
  Yes,                                    !- Apply Thursday
  Yes;                                    !- Apply Friday

OS:Schedule:Day,
  {bf13f95d-5d4b-42d8-979f-ff510cce4baa}, !- Handle
  Medium Office Number of People Weekdays Schedule, !- Name
  {f7b8c92f-5cb6-4f29-b815-81ad3361628b}, !- Schedule Type Limits Name
  ,                                       !- Interpolate to Timestep
  6,                                      !- Hour 1
  0,                                      !- Minute 1
  0,                                      !- Value Until Time 1
  7,                                      !- Hour 2
  0,                                      !- Minute 2
  0.1,                                    !- Value Until Time 2
  8,                                      !- Hour 3
  0,                                      !- Minute 3
  0.2,                                    !- Value Until Time 3
  12,                                     !- Hour 4
  0,                                      !- Minute 4
  0.95,                                   !- Value Until Time 4
  13,                                     !- Hour 5
  0,                                      !- Minute 5
  0.5,                                    !- Value Until Time 5
  17,                                     !- Hour 6
  0,                                      !- Minute 6
  0.95,                                   !- Value Until Time 6
  18,                                     !- Hour 7
  0,                                      !- Minute 7
  0.7,                                    !- Value Until Time 7
  20,                                     !- Hour 8
  0,                                      !- Minute 8
  0.4,                                    !- Value Until Time 8
  22,                                     !- Hour 9
  0,                                      !- Minute 9
  0.1,                                    !- Value Until Time 9
  24,                                     !- Hour 10
  0,                                      !- Minute 10
  0.05;                                   !- Value Until Time 10

OS:Schedule:Rule,
  {07ec9c7d-b911-4068-94db-2a454f1eb22a}, !- Handle
  Medium Office Number of People Schedule Saturday Rule, !- Name
  {15f79f90-bedb-45f4-81be-fd88bc105ae0}, !- Schedule Ruleset Name
  0,                                      !- Rule Order
  {fa7967db-fe1f-4db9-85c3-caa8c032203c}, !- Day Schedule Name
  ,                                       !- Apply Sunday
  ,                                       !- Apply Monday
  ,                                       !- Apply Tuesday
  ,                                       !- Apply Wednesday
  ,                                       !- Apply Thursday
  ,                                       !- Apply Friday
  Yes;                                    !- Apply Saturday

OS:Schedule:Day,
  {fa7967db-fe1f-4db9-85c3-caa8c032203c}, !- Handle
  Medium Office Number of People Saturday Schedule, !- Name
  {f7b8c92f-5cb6-4f29-b815-81ad3361628b}, !- Schedule Type Limits Name
  ,                                       !- Interpolate to Timestep
  6,                                      !- Hour 1
  0,                                      !- Minute 1
  0,                                      !- Value Until Time 1
  8,                                      !- Hour 2
  0,                                      !- Minute 2
  0.1,                                    !- Value Until Time 2
  14,                                     !- Hour 3
  0,                                      !- Minute 3
  0.5,                                    !- Value Until Time 3
  17,                                     !- Hour 4
  0,                                      !- Minute 4
  0.1,                                    !- Value Until Time 4
  24,                                     !- Hour 5
  0,                                      !- Minute 5
  0;                                      !- Value Until Time 5

OS:ScheduleTypeLimits,
  {f7b8c92f-5cb6-4f29-b815-81ad3361628b}, !- Handle
  Fractional,                             !- Name
  0,                                      !- Lower Limit Value {BasedOnField A4}
  1,                                      !- Upper Limit Value {BasedOnField A4}
  Continuous;                             !- Numeric Type

OS:Schedule:Ruleset,
  {50ae24af-4b79-4331-a052-daea7ebbe407}, !- Handle
  Medium Office People Activity Level Schedule, !- Name
  {bcbf1ea9-f7c5-4771-b37e-a5c6744ea818}, !- Schedule Type Limits Name
  {7b013842-9f4b-4ece-9951-896638607fb3}; !- Default Day Schedule Name

OS:Schedule:Day,
  {7b013842-9f4b-4ece-9951-896638607fb3}, !- Handle
  Medium Office People Activity Level All Days Schedule, !- Name
  {bcbf1ea9-f7c5-4771-b37e-a5c6744ea818}, !- Schedule Type Limits Name
  ,                                       !- Interpolate to Timestep
  24,                                     !- Hour 1
  0,                                      !- Minute 1
  120;                                    !- Value Until Time 1

OS:ScheduleTypeLimits,
  {bcbf1ea9-f7c5-4771-b37e-a5c6744ea818}, !- Handle
  ActivityLevel,                          !- Name
  0,                                      !- Lower Limit Value {BasedOnField A4}
  ,                                       !- Upper Limit Value {BasedOnField A4}
  Continuous,                             !- Numeric Type
  ActivityLevel;                          !- Unit Type

OS:Schedule:Ruleset,
  {30c069eb-13ee-4a60-aefc-c8c5f56979ec}, !- Handle
  Medium Office Lighting Schedule,        !- Name
  {f7b8c92f-5cb6-4f29-b815-81ad3361628b}, !- Schedule Type Limits Name
  {f82fe13b-1273-4881-a32d-54e1d29ef8d2}, !- Default Day Schedule Name
  {ab0d392d-7534-4e23-a284-0d96f6c5e103}, !- Summer Design Day Schedule Name
  {0bf5f494-c0aa-4030-81dd-175069b71fbf}; !- Winter Design Day Schedule Name

OS:Schedule:Day,
  {f82fe13b-1273-4881-a32d-54e1d29ef8d2}, !- Handle
  Medium Office Lighting All Other Days Schedule, !- Name
  {f7b8c92f-5cb6-4f29-b815-81ad3361628b}, !- Schedule Type Limits Name
  ,                                       !- Interpolate to Timestep
  24,                                     !- Hour 1
  0,                                      !- Minute 1
  0.05;                                   !- Value Until Time 1

OS:Schedule:Day,
  {2bc39acb-3a77-443b-9b22-02fc1311dedf}, !- Handle
  Medium Office Lighting Summer Design Day Schedule, !- Name
  ,                                       !- Schedule Type Limits Name
  ,                                       !- Interpolate to Timestep
  6,                                      !- Hour 1
  0,                                      !- Minute 1
  1,                                      !- Value Until Time 1
  24,                                     !- Hour 2
  0,                                      !- Minute 2
  0;                                      !- Value Until Time 2

OS:Schedule:Day,
  {ab0d392d-7534-4e23-a284-0d96f6c5e103}, !- Handle
  Medium Office Lighting Summer Design Day Schedule 1, !- Name
  {f7b8c92f-5cb6-4f29-b815-81ad3361628b}, !- Schedule Type Limits Name
  ,                                       !- Interpolate to Timestep
  6,                                      !- Hour 1
  0,                                      !- Minute 1
  1,                                      !- Value Until Time 1
  24,                                     !- Hour 2
  0,                                      !- Minute 2
  0;                                      !- Value Until Time 2

OS:Schedule:Day,
  {d6dc3196-8f86-4b5e-b052-fac363c5bb61}, !- Handle
  Medium Office Lighting Winter Design Day Schedule, !- Name
  ,                                       !- Schedule Type Limits Name
  ,                                       !- Interpolate to Timestep
  24,                                     !- Hour 1
  0,                                      !- Minute 1
  0;                                      !- Value Until Time 1

OS:Schedule:Day,
  {0bf5f494-c0aa-4030-81dd-175069b71fbf}, !- Handle
  Medium Office Lighting Winter Design Day Schedule 1, !- Name
  {f7b8c92f-5cb6-4f29-b815-81ad3361628b}, !- Schedule Type Limits Name
  ,                                       !- Interpolate to Timestep
  24,                                     !- Hour 1
  0,                                      !- Minute 1
  0;                                      !- Value Until Time 1

OS:Schedule:Rule,
  {8bbe13cc-3a1d-4bd6-a41e-afd4a11b32d6}, !- Handle
  Medium Office Lighting Schedule Weekdays Rule, !- Name
  {30c069eb-13ee-4a60-aefc-c8c5f56979ec}, !- Schedule Ruleset Name
  1,                                      !- Rule Order
  {19dfa6c2-7c1d-41fb-ba3c-f59c8ccad489}, !- Day Schedule Name
  ,                                       !- Apply Sunday
  Yes,                                    !- Apply Monday
  Yes,                                    !- Apply Tuesday
  Yes,                                    !- Apply Wednesday
  Yes,                                    !- Apply Thursday
  Yes;                                    !- Apply Friday

OS:Schedule:Day,
  {19dfa6c2-7c1d-41fb-ba3c-f59c8ccad489}, !- Handle
  Medium Office Lighting Weekdays Schedule, !- Name
  {f7b8c92f-5cb6-4f29-b815-81ad3361628b}, !- Schedule Type Limits Name
  ,                                       !- Interpolate to Timestep
  5,                                      !- Hour 1
  0,                                      !- Minute 1
  0.05,                                   !- Value Until Time 1
  7,                                      !- Hour 2
  0,                                      !- Minute 2
  0.1,                                    !- Value Until Time 2
  8,                                      !- Hour 3
  0,                                      !- Minute 3
  0.3,                                    !- Value Until Time 3
  17,                                     !- Hour 4
  0,                                      !- Minute 4
  0.9,                                    !- Value Until Time 4
  18,                                     !- Hour 5
  0,                                      !- Minute 5
  0.7,                                    !- Value Until Time 5
  20,                                     !- Hour 6
  0,                                      !- Minute 6
  0.5,                                    !- Value Until Time 6
  22,                                     !- Hour 7
  0,                                      !- Minute 7
  0.3,                                    !- Value Until Time 7
  23,                                     !- Hour 8
  0,                                      !- Minute 8
  0.1,                                    !- Value Until Time 8
  24,                                     !- Hour 9
  0,                                      !- Minute 9
  0.05;                                   !- Value Until Time 9

OS:Schedule:Rule,
  {943b7c40-30eb-4f8c-88c9-db0d971a03fa}, !- Handle
  Medium Office Lighting Schedule Saturday Rule, !- Name
  {30c069eb-13ee-4a60-aefc-c8c5f56979ec}, !- Schedule Ruleset Name
  0,                                      !- Rule Order
  {876b26b0-3637-4d36-98d7-5a73bf5fa4be}, !- Day Schedule Name
  ,                                       !- Apply Sunday
  ,                                       !- Apply Monday
  ,                                       !- Apply Tuesday
  ,                                       !- Apply Wednesday
  ,                                       !- Apply Thursday
  ,                                       !- Apply Friday
  Yes;                                    !- Apply Saturday

OS:Schedule:Day,
  {876b26b0-3637-4d36-98d7-5a73bf5fa4be}, !- Handle
  Medium Office Lighting Saturday Schedule, !- Name
  {f7b8c92f-5cb6-4f29-b815-81ad3361628b}, !- Schedule Type Limits Name
  ,                                       !- Interpolate to Timestep
  6,                                      !- Hour 1
  0,                                      !- Minute 1
  0.05,                                   !- Value Until Time 1
  8,                                      !- Hour 2
  0,                                      !- Minute 2
  0.1,                                    !- Value Until Time 2
  14,                                     !- Hour 3
  0,                                      !- Minute 3
  0.5,                                    !- Value Until Time 3
  17,                                     !- Hour 4
  0,                                      !- Minute 4
  0.15,                                   !- Value Until Time 4
  24,                                     !- Hour 5
  0,                                      !- Minute 5
  0.05;                                   !- Value Until Time 5

OS:Schedule:Ruleset,
  {928944e0-3765-46ec-b8bc-795a238dabf0}, !- Handle
  Medium Office Electric Equipment Schedule, !- Name
  {f7b8c92f-5cb6-4f29-b815-81ad3361628b}, !- Schedule Type Limits Name
  {a8b4a4e6-845d-4aec-9681-5d33de4df459}, !- Default Day Schedule Name
  {469a5db9-d9c0-4fab-8ae8-8d7d13be6785}, !- Summer Design Day Schedule Name
  {81f5779e-60da-4cac-b14e-47447879de43}; !- Winter Design Day Schedule Name

OS:Schedule:Day,
  {a8b4a4e6-845d-4aec-9681-5d33de4df459}, !- Handle
  Medium Office Electric Equipment All Other Days Schedule, !- Name
  {f7b8c92f-5cb6-4f29-b815-81ad3361628b}, !- Schedule Type Limits Name
  ,                                       !- Interpolate to Timestep
  24,                                     !- Hour 1
  0,                                      !- Minute 1
  0.3;                                    !- Value Until Time 1

OS:Schedule:Day,
  {9c8ac693-c7a8-4b3b-a4db-5fe1763506b6}, !- Handle
  Medium Office Electric Equipment Summer Design Day Schedule, !- Name
  ,                                       !- Schedule Type Limits Name
  ,                                       !- Interpolate to Timestep
  6,                                      !- Hour 1
  0,                                      !- Minute 1
  1,                                      !- Value Until Time 1
  24,                                     !- Hour 2
  0,                                      !- Minute 2
  0;                                      !- Value Until Time 2

OS:Schedule:Day,
  {469a5db9-d9c0-4fab-8ae8-8d7d13be6785}, !- Handle
  Medium Office Electric Equipment Summer Design Day Schedule 1, !- Name
  {f7b8c92f-5cb6-4f29-b815-81ad3361628b}, !- Schedule Type Limits Name
  ,                                       !- Interpolate to Timestep
  6,                                      !- Hour 1
  0,                                      !- Minute 1
  1,                                      !- Value Until Time 1
  24,                                     !- Hour 2
  0,                                      !- Minute 2
  0;                                      !- Value Until Time 2

OS:Schedule:Day,
  {9ecaa9c2-405a-4b1a-8395-e1529956121e}, !- Handle
  Medium Office Electric Equipment Winter Design Day Schedule, !- Name
  ,                                       !- Schedule Type Limits Name
  ,                                       !- Interpolate to Timestep
  24,                                     !- Hour 1
  0,                                      !- Minute 1
  0;                                      !- Value Until Time 1

OS:Schedule:Day,
  {81f5779e-60da-4cac-b14e-47447879de43}, !- Handle
  Medium Office Electric Equipment Winter Design Day Schedule 1, !- Name
  {f7b8c92f-5cb6-4f29-b815-81ad3361628b}, !- Schedule Type Limits Name
  ,                                       !- Interpolate to Timestep
  24,                                     !- Hour 1
  0,                                      !- Minute 1
  0;                                      !- Value Until Time 1

OS:Schedule:Rule,
  {a2e1dc17-944f-4849-a801-103cbf1e88e2}, !- Handle
  Medium Office Electric Equipment Schedule Weekdays Rule, !- Name
  {928944e0-3765-46ec-b8bc-795a238dabf0}, !- Schedule Ruleset Name
  1,                                      !- Rule Order
  {394a1c73-e13c-4017-94b2-70fbc6c1cc95}, !- Day Schedule Name
  ,                                       !- Apply Sunday
  Yes,                                    !- Apply Monday
  Yes,                                    !- Apply Tuesday
  Yes,                                    !- Apply Wednesday
  Yes,                                    !- Apply Thursday
  Yes;                                    !- Apply Friday

OS:Schedule:Day,
  {394a1c73-e13c-4017-94b2-70fbc6c1cc95}, !- Handle
  Medium Office Electric Equipment Weekdays Schedule, !- Name
  {f7b8c92f-5cb6-4f29-b815-81ad3361628b}, !- Schedule Type Limits Name
  ,                                       !- Interpolate to Timestep
  8,                                      !- Hour 1
  0,                                      !- Minute 1
  0.4,                                    !- Value Until Time 1
  12,                                     !- Hour 2
  0,                                      !- Minute 2
  0.9,                                    !- Value Until Time 2
  13,                                     !- Hour 3
  0,                                      !- Minute 3
  0.8,                                    !- Value Until Time 3
  17,                                     !- Hour 4
  0,                                      !- Minute 4
  0.9,                                    !- Value Until Time 4
  18,                                     !- Hour 5
  0,                                      !- Minute 5
  0.8,                                    !- Value Until Time 5
  20,                                     !- Hour 6
  0,                                      !- Minute 6
  0.6,                                    !- Value Until Time 6
  22,                                     !- Hour 7
  0,                                      !- Minute 7
  0.5,                                    !- Value Until Time 7
  24,                                     !- Hour 8
  0,                                      !- Minute 8
  0.4;                                    !- Value Until Time 8

OS:Schedule:Rule,
  {3229fc0b-6c6e-4157-8bbf-f35c0e1fed6c}, !- Handle
  Medium Office Electric Equipment Schedule Saturday Rule, !- Name
  {928944e0-3765-46ec-b8bc-795a238dabf0}, !- Schedule Ruleset Name
  0,                                      !- Rule Order
  {398cab01-4299-4378-b97a-6fb7423ad96b}, !- Day Schedule Name
  ,                                       !- Apply Sunday
  ,                                       !- Apply Monday