
OS:Version,
  {f9397e13-0f54-4bd3-85d2-398478675e55}, !- Handle
  1.12.2;                                 !- Version Identifier

OS:SimulationControl,
  {b674b192-54de-46bc-bdce-8d917d8bbdb4}, !- Handle
  Yes,                                    !- Do Zone Sizing Calculation
  Yes,                                    !- Do System Sizing Calculation
  ,                                       !- Do Plant Sizing Calculation
  No,                                     !- Run Simulation for Sizing Periods
  Yes;                                    !- Run Simulation for Weather File Run Periods

OS:Timestep,
  {4d79461a-b1ae-4ae8-b9de-b40f05f235d0}, !- Handle
  6;                                      !- Number of Timesteps per Hour

OS:RunPeriod,
  {f4832159-1ba3-49ac-b222-ffe55eca78d8}, !- Handle
  Run Period 1,                           !- Name
  1,                                      !- Begin Month
  1,                                      !- Begin Day of Month
  12,                                     !- End Month
  31,                                     !- End Day of Month
  No,                                     !- Use Weather File Holidays and Special Days
  No,                                     !- Use Weather File Daylight Saving Period
  No,                                     !- Apply Weekend Holiday Rule
  Yes,                                    !- Use Weather File Rain Indicators
  Yes,                                    !- Use Weather File Snow Indicators
  1;                                      !- Number of Times Runperiod to be Repeated

OS:SurfaceConvectionAlgorithm:Inside,
  {f678ebd7-2d9f-4f78-a580-0518e838c53d}, !- Handle
  TARP;                                   !- Algorithm

OS:SurfaceConvectionAlgorithm:Outside,
  {3ecd3904-9ad3-41d7-969b-7aca7ea8a22a}, !- Handle
  DOE-2;                                  !- Algorithm

OS:HeatBalanceAlgorithm,
  {f19455ab-d506-418b-b5b3-b446d5a8b0bc}, !- Handle
  ConductionTransferFunction,             !- Algorithm
  200;                                    !- Surface Temperature Upper Limit {C}

OS:ZoneAirHeatBalanceAlgorithm,
  {8d15355b-0500-4c9d-ac62-5fd0e329a1ea}, !- Handle
  ThirdOrderBackwardDifference;           !- Algorithm

OS:ConvergenceLimits,
  {79184fc3-ab30-47e0-a8fe-1c25e2a28f32}, !- Handle
  1;                                      !- Minimum System Timestep {minutes}

OS:ShadowCalculation,
  {db6270e7-d966-433d-a87d-809d18b94bec}, !- Handle
  20,                                     !- Calculation Frequency
  15000;                                  !- Maximum Figures in Shadow Overlap Calculations

OS:Site,
  {9ee0c2c7-ec85-43c1-807a-7ff2af56d820}, !- Handle
  Site 1,                                 !- Name
  41.77,                                  !- Latitude {deg}
  -87.75,                                 !- Longitude {deg}
  -6,                                     !- Time Zone {hr}
  190,                                    !- Elevation {m}
  ;                                       !- Terrain

OS:Site:GroundTemperature:BuildingSurface,
  {7be8837e-aa4a-4de0-8443-7e7da9bb8fec}, !- Handle
  19.527,                                 !- January Ground Temperature {C}
  19.502,                                 !- February Ground Temperature {C}
  19.536,                                 !- March Ground Temperature {C}
  19.598,                                 !- April Ground Temperature {C}
  20.002,                                 !- May Ground Temperature {C}
  21.64,                                  !- June Ground Temperature {C}
  22.225,                                 !- July Ground Temperature {C}
  22.375,                                 !- August Ground Temperature {C}
  21.449,                                 !- September Ground Temperature {C}
  20.121,                                 !- October Ground Temperature {C}
  19.802,                                 !- November Ground Temperature {C}
  19.633;                                 !- December Ground Temperature {C}

OS:Site:GroundTemperature:Deep,
  {a59a5352-88ac-40a2-b15e-8e54c2cdefe1}, !- Handle
  19.527,                                 !- January Deep Ground Temperature {C}
  19.502,                                 !- February Deep Ground Temperature {C}
  19.536,                                 !- March Deep Ground Temperature {C}
  19.598,                                 !- April Deep Ground Temperature {C}
  20.002,                                 !- May Deep Ground Temperature {C}
  21.64,                                  !- June Deep Ground Temperature {C}
  22.225,                                 !- July Deep Ground Temperature {C}
  22.375,                                 !- August Deep Ground Temperature {C}
  21.449,                                 !- September Deep Ground Temperature {C}
  20.121,                                 !- October Deep Ground Temperature {C}
  19.802,                                 !- November Deep Ground Temperature {C}
  19.633;                                 !- December Deep Ground Temperature {C}

OS:Site:WaterMainsTemperature,
  {062ae93b-9a03-47aa-9f5c-ad7f5d407c59}, !- Handle
  Correlation,                            !- Calculation Method
  ,                                       !- Temperature Schedule Name
  9.69,                                   !- Annual Average Outdoor Air Temperature {C}
  28.1;                                   !- Maximum Difference In Monthly Average Outdoor Air Temperatures {deltaC}

OS:SizingPeriod:DesignDay,
  {330a0fcc-7705-4a82-ab2f-91f7fbf07e20}, !- Handle
  Sizing Period Design Day 1,             !- Name
  -20.6,                                  !- Maximum Dry-Bulb Temperature {C}
  0,                                      !- Daily Dry-Bulb Temperature Range {deltaC}
  -20.6,                                  !- Humidity Indicating Conditions at Maximum Dry-Bulb
  99063,                                  !- Barometric Pressure {Pa}
  4.9,                                    !- Wind Speed {m/s}
  270,                                    !- Wind Direction {deg}
  0,                                      !- Sky Clearness
  0,                                      !- Rain Indicator
  0,                                      !- Snow Indicator
  21,                                     !- Day of Month
  1,                                      !- Month
  WinterDesignDay,                        !- Day Type
  0,                                      !- Daylight Saving Time Indicator
  WetBulb,                                !- Humidity Indicating Type
  ,                                       !- Humidity Indicating Day Schedule Name
  DefaultMultipliers,                     !- Dry-Bulb Temperature Range Modifier Type
  ,                                       !- Dry-Bulb Temperature Range Modifier Schedule Name
  AshraeClearSky;                         !- Solar Model Indicator

OS:SizingPeriod:DesignDay,
  {d1c7d506-46c5-4da3-8d9d-c20acc39136d}, !- Handle
  Sizing Period Design Day 2,             !- Name
  33.2,                                   !- Maximum Dry-Bulb Temperature {C}
  10.7,                                   !- Daily Dry-Bulb Temperature Range {deltaC}
  23.8,                                   !- Humidity Indicating Conditions at Maximum Dry-Bulb
  99063,                                  !- Barometric Pressure {Pa}
  5.3,                                    !- Wind Speed {m/s}
  230,                                    !- Wind Direction {deg}
  1,                                      !- Sky Clearness
  0,                                      !- Rain Indicator
  0,                                      !- Snow Indicator
  21,                                     !- Day of Month
  7,                                      !- Month
  SummerDesignDay,                        !- Day Type
  0,                                      !- Daylight Saving Time Indicator
  WetBulb,                                !- Humidity Indicating Type
  ,                                       !- Humidity Indicating Day Schedule Name
  DefaultMultipliers,                     !- Dry-Bulb Temperature Range Modifier Type
  ,                                       !- Dry-Bulb Temperature Range Modifier Schedule Name
  AshraeClearSky;                         !- Solar Model Indicator

OS:ScheduleTypeLimits,
  {fc16eec4-25ec-477f-829e-0f0009b670f6}, !- Handle
  Temperature,                            !- Name
  -60,                                    !- Lower Limit Value
  200,                                    !- Upper Limit Value
  CONTINUOUS,                             !- Numeric Type
  Temperature;                            !- Unit Type

OS:DefaultScheduleSet,
  {78d0e0d2-ba1e-43eb-aad2-a8f81f108322}, !- Handle
  Default Schedules,                      !- Name
  ,                                       !- Hours of Operation Schedule Name
  {44bb848f-48f5-476d-a739-369506743e68}, !- Number of People Schedule Name
  {668c3cf6-d683-44a6-bc81-6ace22a3f52c}, !- People Activity Level Schedule Name
  {33e89dcb-a96e-40d6-8c78-3e1739443e3a}, !- Lighting Schedule Name
  {22f257e1-9e7b-409e-9e1e-5fa19a75aea0}, !- Electric Equipment Schedule Name
  {59ef1035-0b06-4f9c-be89-ebe8972ad5fb}, !- Gas Equipment Schedule Name
  {cef6b056-055c-475e-93d3-00ede62ad631}, !- Hot Water Equipment Schedule Name
  {840854eb-4b4f-48e2-bb7b-761f11b1b472}, !- Infiltration Schedule Name
  ,                                       !- Steam Equipment Schedule Name
  ;                                       !- Other Equipment Schedule Name

OS:Schedule:Ruleset,
  {44bb848f-48f5-476d-a739-369506743e68}, !- Handle
  Medium Office Number of People Schedule, !- Name
  {788bf616-1044-43f2-ac82-79449b1358c0}, !- Schedule Type Limits Name
  {612892eb-ebef-484a-b139-bdc8954bf784}, !- Default Day Schedule Name
  {a22e3e0e-95af-4abe-8857-9b49df2d4a42}; !- Summer Design Day Schedule Name

OS:Schedule:Day,
  {612892eb-ebef-484a-b139-bdc8954bf784}, !- Handle
  Medium Office Number of People All Other Days Schedule, !- Name
  {788bf616-1044-43f2-ac82-79449b1358c0}, !- Schedule Type Limits Name
  ,                                       !- Interpolate to Timestep
  24,                                     !- Hour 1
  0,                                      !- Minute 1
  0;                                      !- Value Until Time 1

OS:Schedule:Day,
  {be9a17f4-c430-4f46-9d5a-3cf15583ba66}, !- Handle
  Medium Office Number of People Summer Design Day Schedule, !- Name
  ,                                       !- Schedule Type Limits Name
  ,                                       !- Interpolate to Timestep
  6,                                      !- Hour 1
  0,                                      !- Minute 1
  0,                                      !- Value Until Time 1
  22,                                     !- Hour 2
  0,                                      !- Minute 2
  1,                                      !- Value Until Time 2
  24,                                     !- Hour 3
  0,                                      !- Minute 3
  0.05;                                   !- Value Until Time 3

OS:Schedule:Day,
  {a22e3e0e-95af-4abe-8857-9b49df2d4a42}, !- Handle
  Medium Office Number of People Summer Design Day Schedule 1, !- Name
  {788bf616-1044-43f2-ac82-79449b1358c0}, !- Schedule Type Limits Name
  ,                                       !- Interpolate to Timestep
  6,                                      !- Hour 1
  0,                                      !- Minute 1
  0,                                      !- Value Until Time 1
  22,                                     !- Hour 2
  0,                                      !- Minute 2
  1,                                      !- Value Until Time 2
  24,                                     !- Hour 3
  0,                                      !- Minute 3
  0.05;                                   !- Value Until Time 3

OS:Schedule:Rule,
  {167e9c00-972e-4b35-86ce-7623270be051}, !- Handle
  Medium Office Number of People Schedule Weekdays Rule, !- Name
  {44bb848f-48f5-476d-a739-369506743e68}, !- Schedule Ruleset Name
  1,                                      !- Rule Order
  {ed024d3f-9b60-436c-9016-4afde25bbb7e}, !- Day Schedule Name
  ,                                       !- Apply Sunday
  Yes,                                    !- Apply Monday
  Yes,                                    !- Apply Tuesday
  Yes,                                    !- Apply Wednesday
  Yes,                                    !- Apply Thursday
  Yes;                                    !- Apply Friday

OS:Schedule:Day,
  {ed024d3f-9b60-436c-9016-4afde25bbb7e}, !- Handle
  Medium Office Number of People Weekdays Schedule, !- Name
  {788bf616-1044-43f2-ac82-79449b1358c0}, !- Schedule Type Limits Name
  ,                                       !- Interpolate to Timestep
  6,                                      !- Hour 1
  0,                                      !- Minute 1
  0,                                      !- Value Until Time 1
  7,                                      !- Hour 2
  0,                                      !- Minute 2
  0.1,                                    !- Value Until Time 2
  8,                                      !- Hour 3
  0,                                      !- Minute 3
  0.2,                                    !- Value Until Time 3
  12,                                     !- Hour 4
  0,                                      !- Minute 4
  0.95,                                   !- Value Until Time 4
  13,                                     !- Hour 5
  0,                                      !- Minute 5
  0.5,                                    !- Value Until Time 5
  17,                                     !- Hour 6
  0,                                      !- Minute 6
  0.95,                                   !- Value Until Time 6
  18,                                     !- Hour 7
  0,                                      !- Minute 7
  0.7,                                    !- Value Until Time 7
  20,                                     !- Hour 8
  0,                                      !- Minute 8
  0.4,                                    !- Value Until Time 8
  22,                                     !- Hour 9
  0,                                      !- Minute 9
  0.1,                                    !- Value Until Time 9
  24,                                     !- Hour 10
  0,                                      !- Minute 10
  0.05;                                   !- Value Until Time 10

OS:Schedule:Rule,
  {4936f7f9-c542-474a-91ac-8309de0c4627}, !- Handle
  Medium Office Number of People Schedule Saturday Rule, !- Name
  {44bb848f-48f5-476d-a739-369506743e68}, !- Schedule Ruleset Name
  0,                                      !- Rule Order
  {22f938b0-e0c2-4900-af49-510c4f6e05fc}, !- Day Schedule Name
  ,                                       !- Apply Sunday
  ,                                       !- Apply Monday
  ,                                       !- Apply Tuesday
  ,                                       !- Apply Wednesday
  ,                                       !- Apply Thursday
  ,                                       !- Apply Friday
  Yes;                                    !- Apply Saturday

OS:Schedule:Day,
  {22f938b0-e0c2-4900-af49-510c4f6e05fc}, !- Handle
  Medium Office Number of People Saturday Schedule, !- Name
  {788bf616-1044-43f2-ac82-79449b1358c0}, !- Schedule Type Limits Name
  ,                                       !- Interpolate to Timestep
  6,                                      !- Hour 1
  0,                                      !- Minute 1
  0,                                      !- Value Until Time 1
  8,                                      !- Hour 2
  0,                                      !- Minute 2
  0.1,                                    !- Value Until Time 2
  14,                                     !- Hour 3
  0,                                      !- Minute 3
  0.5,                                    !- Value Until Time 3
  17,                                     !- Hour 4
  0,                                      !- Minute 4
  0.1,                                    !- Value Until Time 4
  24,                                     !- Hour 5
  0,                                      !- Minute 5
  0;                                      !- Value Until Time 5

OS:ScheduleTypeLimits,
  {788bf616-1044-43f2-ac82-79449b1358c0}, !- Handle
  Fractional,                             !- Name
  0,                                      !- Lower Limit Value
  1,                                      !- Upper Limit Value
  Continuous;                             !- Numeric Type

OS:Schedule:Ruleset,
  {668c3cf6-d683-44a6-bc81-6ace22a3f52c}, !- Handle
  Medium Office People Activity Level Schedule, !- Name
  {54c9f36b-1f2a-4260-9df7-b96160b03565}, !- Schedule Type Limits Name
  {e4af281d-d49d-48f4-8bb3-58c36e8cb2b0}; !- Default Day Schedule Name

OS:Schedule:Day,
  {e4af281d-d49d-48f4-8bb3-58c36e8cb2b0}, !- Handle
  Medium Office People Activity Level All Days Schedule, !- Name
  {54c9f36b-1f2a-4260-9df7-b96160b03565}, !- Schedule Type Limits Name
  ,                                       !- Interpolate to Timestep
  24,                                     !- Hour 1
  0,                                      !- Minute 1
  120;                                    !- Value Until Time 1

OS:ScheduleTypeLimits,
  {54c9f36b-1f2a-4260-9df7-b96160b03565}, !- Handle
  ActivityLevel,                          !- Name
  0,                                      !- Lower Limit Value
  ,                                       !- Upper Limit Value
  Continuous,                             !- Numeric Type
  ActivityLevel;                          !- Unit Type

OS:Schedule:Ruleset,
  {33e89dcb-a96e-40d6-8c78-3e1739443e3a}, !- Handle
  Medium Office Lighting Schedule,        !- Name
  {788bf616-1044-43f2-ac82-79449b1358c0}, !- Schedule Type Limits Name
  {a77bd573-2690-4ad7-aeac-7c940a99145c}, !- Default Day Schedule Name
  {d34ae35c-a864-4af2-9f99-1263237b8924}, !- Summer Design Day Schedule Name
  {bb492d20-f3c8-4b2e-8f41-cea3c3e0ae59}; !- Winter Design Day Schedule Name

OS:Schedule:Day,
  {a77bd573-2690-4ad7-aeac-7c940a99145c}, !- Handle
  Medium Office Lighting All Other Days Schedule, !- Name
  {788bf616-1044-43f2-ac82-79449b1358c0}, !- Schedule Type Limits Name
  ,                                       !- Interpolate to Timestep
  24,                                     !- Hour 1
  0,                                      !- Minute 1
  0.05;                                   !- Value Until Time 1

OS:Schedule:Day,
  {eb3f5064-0490-45c4-9986-f373f4a1df65}, !- Handle
  Medium Office Lighting Summer Design Day Schedule, !- Name
  ,                                       !- Schedule Type Limits Name
  ,                                       !- Interpolate to Timestep
  6,                                      !- Hour 1
  0,                                      !- Minute 1
  1,                                      !- Value Until Time 1
  24,                                     !- Hour 2
  0,                                      !- Minute 2
  0;                                      !- Value Until Time 2

OS:Schedule:Day,
  {d34ae35c-a864-4af2-9f99-1263237b8924}, !- Handle
  Medium Office Lighting Summer Design Day Schedule 1, !- Name
  {788bf616-1044-43f2-ac82-79449b1358c0}, !- Schedule Type Limits Name
  ,                                       !- Interpolate to Timestep
  6,                                      !- Hour 1
  0,                                      !- Minute 1
  1,                                      !- Value Until Time 1
  24,                                     !- Hour 2
  0,                                      !- Minute 2
  0;                                      !- Value Until Time 2

OS:Schedule:Day,
  {1ac8ac6e-9371-487b-acac-114c82a16b8b}, !- Handle
  Medium Office Lighting Winter Design Day Schedule, !- Name
  ,                                       !- Schedule Type Limits Name
  ,                                       !- Interpolate to Timestep
  24,                                     !- Hour 1
  0,                                      !- Minute 1
  0;                                      !- Value Until Time 1

OS:Schedule:Day,
  {bb492d20-f3c8-4b2e-8f41-cea3c3e0ae59}, !- Handle
  Medium Office Lighting Winter Design Day Schedule 1, !- Name
  {788bf616-1044-43f2-ac82-79449b1358c0}, !- Schedule Type Limits Name
  ,                                       !- Interpolate to Timestep
  24,                                     !- Hour 1
  0,                                      !- Minute 1
  0;                                      !- Value Until Time 1

OS:Schedule:Rule,
  {0d88a95b-1096-4295-ad19-04a160d4c35b}, !- Handle
  Medium Office Lighting Schedule Weekdays Rule, !- Name
  {33e89dcb-a96e-40d6-8c78-3e1739443e3a}, !- Schedule Ruleset Name
  1,                                      !- Rule Order
  {d95a5374-d743-48fb-9910-564389641822}, !- Day Schedule Name
  ,                                       !- Apply Sunday
  Yes,                                    !- Apply Monday
  Yes,                                    !- Apply Tuesday
  Yes,                                    !- Apply Wednesday
  Yes,                                    !- Apply Thursday
  Yes;                                    !- Apply Friday

OS:Schedule:Day,
  {d95a5374-d743-48fb-9910-564389641822}, !- Handle
  Medium Office Lighting Weekdays Schedule, !- Name
  {788bf616-1044-43f2-ac82-79449b1358c0}, !- Schedule Type Limits Name
  ,                                       !- Interpolate to Timestep
  5,                                      !- Hour 1
  0,                                      !- Minute 1
  0.05,                                   !- Value Until Time 1
  7,                                      !- Hour 2
  0,                                      !- Minute 2
  0.1,                                    !- Value Until Time 2
  8,                                      !- Hour 3
  0,                                      !- Minute 3
  0.3,                                    !- Value Until Time 3
  17,                                     !- Hour 4
  0,                                      !- Minute 4
  0.9,                                    !- Value Until Time 4
  18,                                     !- Hour 5
  0,                                      !- Minute 5
  0.7,                                    !- Value Until Time 5
  20,                                     !- Hour 6
  0,                                      !- Minute 6
  0.5,                                    !- Value Until Time 6
  22,                                     !- Hour 7
  0,                                      !- Minute 7
  0.3,                                    !- Value Until Time 7
  23,                                     !- Hour 8
  0,                                      !- Minute 8
  0.1,                                    !- Value Until Time 8
  24,                                     !- Hour 9
  0,                                      !- Minute 9
  0.05;                                   !- Value Until Time 9

OS:Schedule:Rule,
  {8a635b8b-e8a2-4453-aa6d-a7039c4cb39f}, !- Handle
  Medium Office Lighting Schedule Saturday Rule, !- Name
  {33e89dcb-a96e-40d6-8c78-3e1739443e3a}, !- Schedule Ruleset Name
  0,                                      !- Rule Order
  {b0355eb0-7c6a-4d7a-af3f-608c608e589c}, !- Day Schedule Name
  ,                                       !- Apply Sunday
  ,                                       !- Apply Monday
  ,                                       !- Apply Tuesday
  ,                                       !- Apply Wednesday
  ,                                       !- Apply Thursday
  ,                                       !- Apply Friday
  Yes;                                    !- Apply Saturday

OS:Schedule:Day,
  {b0355eb0-7c6a-4d7a-af3f-608c608e589c}, !- Handle
  Medium Office Lighting Saturday Schedule, !- Name
  {788bf616-1044-43f2-ac82-79449b1358c0}, !- Schedule Type Limits Name
  ,                                       !- Interpolate to Timestep
  6,                                      !- Hour 1
  0,                                      !- Minute 1
  0.05,                                   !- Value Until Time 1
  8,                                      !- Hour 2
  0,                                      !- Minute 2
  0.1,                                    !- Value Until Time 2
  14,                                     !- Hour 3
  0,                                      !- Minute 3
  0.5,                                    !- Value Until Time 3
  17,                                     !- Hour 4
  0,                                      !- Minute 4
  0.15,                                   !- Value Until Time 4
  24,                                     !- Hour 5
  0,                                      !- Minute 5
  0.05;                                   !- Value Until Time 5

OS:Schedule:Ruleset,
  {22f257e1-9e7b-409e-9e1e-5fa19a75aea0}, !- Handle
  Medium Office Electric Equipment Schedule, !- Name
  {788bf616-1044-43f2-ac82-79449b1358c0}, !- Schedule Type Limits Name
  {0327e7a5-22cb-4b1a-887a-7f812c127bb8}, !- Default Day Schedule Name
  {0fac1870-1662-4e0f-90ed-6bf2ccf36e7c}, !- Summer Design Day Schedule Name
  {715912be-57f6-47f8-ad2c-dc1cdb8d77bc}; !- Winter Design Day Schedule Name

OS:Schedule:Day,
  {0327e7a5-22cb-4b1a-887a-7f812c127bb8}, !- Handle
  Medium Office Electric Equipment All Other Days Schedule, !- Name
  {788bf616-1044-43f2-ac82-79449b1358c0}, !- Schedule Type Limits Name
  ,                                       !- Interpolate to Timestep
  24,                                     !- Hour 1
  0,                                      !- Minute 1
  0.3;                                    !- Value Until Time 1

OS:Schedule:Day,
  {4ad8a73a-14f4-4ce7-b535-6df86e48f78a}, !- Handle
  Medium Office Electric Equipment Summer Design Day Schedule, !- Name
  ,                                       !- Schedule Type Limits Name
  ,                                       !- Interpolate to Timestep
  6,                                      !- Hour 1
  0,                                      !- Minute 1
  1,                                      !- Value Until Time 1
  24,                                     !- Hour 2
  0,                                      !- Minute 2
  0;                                      !- Value Until Time 2

OS:Schedule:Day,
  {0fac1870-1662-4e0f-90ed-6bf2ccf36e7c}, !- Handle
  Medium Office Electric Equipment Summer Design Day Schedule 1, !- Name
  {788bf616-1044-43f2-ac82-79449b1358c0}, !- Schedule Type Limits Name
  ,                                       !- Interpolate to Timestep
  6,                                      !- Hour 1
  0,                                      !- Minute 1
  1,                                      !- Value Until Time 1
  24,                                     !- Hour 2
  0,                                      !- Minute 2
  0;                                      !- Value Until Time 2

OS:Schedule:Day,
  {9a020f79-c640-4694-95e3-cf1248fe8d60}, !- Handle
  Medium Office Electric Equipment Winter Design Day Schedule, !- Name
  ,                                       !- Schedule Type Limits Name
  ,                                       !- Interpolate to Timestep
  24,                                     !- Hour 1
  0,                                      !- Minute 1
  0;                                      !- Value Until Time 1

OS:Schedule:Day,
  {715912be-57f6-47f8-ad2c-dc1cdb8d77bc}, !- Handle
  Medium Office Electric Equipment Winter Design Day Schedule 1, !- Name
  {788bf616-1044-43f2-ac82-79449b1358c0}, !- Schedule Type Limits Name
  ,                                       !- Interpolate to Timestep
  24,                                     !- Hour 1
  0,                                      !- Minute 1
  0;                                      !- Value Until Time 1

OS:Schedule:Rule,
  {032b9287-42ec-4757-b811-41534c7ef316}, !- Handle
  Medium Office Electric Equipment Schedule Weekdays Rule, !- Name
  {22f257e1-9e7b-409e-9e1e-5fa19a75aea0}, !- Schedule Ruleset Name
  1,                                      !- Rule Order
  {3244ce0f-ba98-4213-b40d-7b12fcbc22b7}, !- Day Schedule Name
  ,                                       !- Apply Sunday
  Yes,                                    !- Apply Monday
  Yes,                                    !- Apply Tuesday
  Yes,                                    !- Apply Wednesday
  Yes,                                    !- Apply Thursday
  Yes;                                    !- Apply Friday

OS:Schedule:Day,
  {3244ce0f-ba98-4213-b40d-7b12fcbc22b7}, !- Handle
  Medium Office Electric Equipment Weekdays Schedule, !- Name
  {788bf616-1044-43f2-ac82-79449b1358c0}, !- Schedule Type Limits Name
  ,                                       !- Interpolate to Timestep
  8,                                      !- Hour 1
  0,                                      !- Minute 1
  0.4,                                    !- Value Until Time 1
  12,                                     !- Hour 2
  0,                                      !- Minute 2
  0.9,                                    !- Value Until Time 2
  13,                                     !- Hour 3
  0,                                      !- Minute 3
  0.8,                                    !- Value Until Time 3
  17,                                     !- Hour 4
  0,                                      !- Minute 4
  0.9,                                    !- Value Until Time 4
  18,                                     !- Hour 5
  0,                                      !- Minute 5
  0.8,                                    !- Value Until Time 5
  20,                                     !- Hour 6