
OS:Version,
  {dea15b17-4dfa-4c48-8e88-018eed5f4908}, !- Handle
  0.11.2;                                 !- Version Identifier

OS:SimulationControl,
  {b0fa7365-e0b5-43fc-96d9-5942a1dd4b76}, !- Handle
  Yes,                                    !- Do Zone Sizing Calculation
  Yes,                                    !- Do System Sizing Calculation
  ,                                       !- Do Plant Sizing Calculation
  No,                                     !- Run Simulation for Sizing Periods
  Yes;                                    !- Run Simulation for Weather File Run Periods

OS:Timestep,
  {907c9111-1b9b-4303-8fa3-04042547f7f5}, !- Handle
  6;                                      !- Number of Timesteps per Hour

OS:RunPeriod,
  {168cbe79-3540-42d5-a72c-d20f647a52c5}, !- Handle
  Run Period 1,                           !- Name
  1,                                      !- Begin Month
  1,                                      !- Begin Day of Month
  12,                                     !- End Month
  31,                                     !- End Day of Month
  No,                                     !- Use Weather File Holidays and Special Days
  No,                                     !- Use Weather File Daylight Saving Period
  No,                                     !- Apply Weekend Holiday Rule
  Yes,                                    !- Use Weather File Rain Indicators
  Yes,                                    !- Use Weather File Snow Indicators
  1;                                      !- Number of Times Runperiod to be Repeated

OS:SurfaceConvectionAlgorithm:Inside,
  {f992dc6b-899e-4b56-b932-ea39b8e00775}, !- Handle
  TARP;                                   !- Algorithm

OS:SurfaceConvectionAlgorithm:Outside,
  {c761bd4d-a371-49aa-ae10-1b8fc131c111}, !- Handle
  DOE-2;                                  !- Algorithm

OS:HeatBalanceAlgorithm,
  {9f0c9624-f9a6-4055-a50a-b3e64604c332}, !- Handle
  ConductionTransferFunction,             !- Algorithm
  200;                                    !- Surface Temperature Upper Limit {F}

OS:ZoneAirHeatBalanceAlgorithm,
  {1e383a5f-63a3-460d-8da4-2643e1769043}, !- Handle
  AnalyticalSolution;                     !- Algorithm

OS:ConvergenceLimits,
  {3b3df9c2-2a9e-4938-951a-444762bf269f}; !- Handle

OS:ShadowCalculation,
  {42212043-75c1-4058-8ec6-685133999bab}, !- Handle
  7,                                      !- Calculation Frequency
  15000;                                  !- Maximum Figures in Shadow Overlap Calculations

OS:Site,
  {8da00841-9920-4c59-8450-5ac03acbc36e}, !- Handle
  Site 1,                                 !- Name
  41.77,                                  !- Latitude {deg}
  -87.75,                                 !- Longitude {deg}
  -6,                                     !- Time Zone {hr}
  190,                                    !- Elevation {m}
  ;                                       !- Terrain

OS:Site:GroundTemperature:BuildingSurface,
  {baf40921-fd93-4ffb-add3-92b352988aab}, !- Handle
  19.527,                                 !- January Ground Temperature {C}
  19.502,                                 !- February Ground Temperature {C}
  19.536,                                 !- March Ground Temperature {C}
  19.598,                                 !- April Ground Temperature {C}
  20.002,                                 !- May Ground Temperature {C}
  21.64,                                  !- June Ground Temperature {C}
  22.225,                                 !- July Ground Temperature {C}
  22.375,                                 !- August Ground Temperature {C}
  21.449,                                 !- September Ground Temperature {C}
  20.121,                                 !- October Ground Temperature {C}
  19.802,                                 !- November Ground Temperature {C}
  19.633;                                 !- December Ground Temperature {C}

OS:Site:WaterMainsTemperature,
  {b22bc243-f095-403e-9049-d54939f1cb3e}, !- Handle
  Correlation,                            !- Calculation Method
  ,                                       !- Temperature Schedule Name
  9.69,                                   !- Annual Average Outdoor Air Temperature {C}
  28.1;                                   !- Maximum Difference In Monthly Average Outdoor Air Temperatures {deltaC}

OS:SizingPeriod:DesignDay,
  {d6014113-c764-4277-af00-3663f5df5015}, !- Handle
  Sizing Period Design Day 1,             !- Name
  -20.6,                                  !- Maximum Dry-Bulb Temperature {C}
  0,                                      !- Daily Dry-Bulb Temperature Range {deltaC}
  -20.6,                                  !- Humidity Indicating Conditions at Maximum Dry-Bulb {BasedOnField A3}
  99063,                                  !- Barometric Pressure {Pa}
  4.9,                                    !- Wind Speed {m/s}
  270,                                    !- Wind Direction {deg}
  0,                                      !- Sky Clearness
  0,                                      !- Rain Indicator
  0,                                      !- Snow Indicator
  21,                                     !- Day of Month
  1,                                      !- Month
  WinterDesignDay,                        !- Day Type
  0,                                      !- Daylight Saving Time Indicator
  WetBulb,                                !- Humidity Indicating Type
  ,                                       !- Humidity Indicating Day Schedule Name
  DefaultMultipliers,                     !- Dry-Bulb Temperature Range Modifier Type
  ,                                       !- Dry-Bulb Temperature Range Modifier Schedule Name
  AshraeClearSky;                         !- Solar Model Indicator

OS:SizingPeriod:DesignDay,
  {23d55b08-555d-4798-9b27-7713d4f54ac9}, !- Handle
  Sizing Period Design Day 2,             !- Name
  33.2,                                   !- Maximum Dry-Bulb Temperature {C}
  10.7,                                   !- Daily Dry-Bulb Temperature Range {deltaC}
  23.8,                                   !- Humidity Indicating Conditions at Maximum Dry-Bulb {BasedOnField A3}
  99063,                                  !- Barometric Pressure {Pa}
  5.3,                                    !- Wind Speed {m/s}
  230,                                    !- Wind Direction {deg}
  1,                                      !- Sky Clearness
  0,                                      !- Rain Indicator
  0,                                      !- Snow Indicator
  21,                                     !- Day of Month
  7,                                      !- Month
  SummerDesignDay,                        !- Day Type
  0,                                      !- Daylight Saving Time Indicator
  WetBulb,                                !- Humidity Indicating Type
  ,                                       !- Humidity Indicating Day Schedule Name
  DefaultMultipliers,                     !- Dry-Bulb Temperature Range Modifier Type
  ,                                       !- Dry-Bulb Temperature Range Modifier Schedule Name
  AshraeClearSky;                         !- Solar Model Indicator

OS:ScheduleTypeLimits,
  {2a596644-c299-48bc-af65-27bf3204abaa}, !- Handle
  Temperature,                            !- Name
  -60,                                    !- Lower Limit Value {BasedOnField A4}
  200,                                    !- Upper Limit Value {BasedOnField A4}
  CONTINUOUS,                             !- Numeric Type
  Temperature;                            !- Unit Type

OS:DefaultScheduleSet,
  {20eca73f-a567-47d5-a83d-2f873f88c6cd}, !- Handle
  Default Schedules,                      !- Name
  ,                                       !- Hours of Operation Schedule Name
  {f8e49614-6adb-4749-ba3b-52c4db539539}, !- Number of People Schedule Name
  {78b3803d-7be8-4272-8f40-e5060e524cdb}, !- People Activity Level Schedule Name
  {a8dde2d0-cc4c-4ab8-92a5-ab463dfd2449}, !- Lighting Schedule Name
  {fd2e721b-6d7f-4107-8b6e-a4cefbb4afab}, !- Electric Equipment Schedule Name
  {2119ed8d-a58d-4154-b6ad-626fbf034843}, !- Gas Equipment Schedule Name
  {310cd971-925b-46d3-9543-e0458c17abf6}, !- Hot Water Equipment Schedule Name
  {f5c4f2ee-b481-488c-8741-9d5aa021602f}, !- Infiltration Schedule Name
  ,                                       !- Steam Equipment Schedule Name
  ;                                       !- Other Equipment Schedule Name

OS:Schedule:Ruleset,
  {f8e49614-6adb-4749-ba3b-52c4db539539}, !- Handle
  Medium Office Number of People Schedule, !- Name
  {12e76567-764c-4ecb-b471-f8fd34d34b20}, !- Schedule Type Limits Name
  {1ca0eed7-d0ff-420a-a289-38de5ab5d0ca}, !- Default Day Schedule Name
  {8f72506d-1328-401f-b793-c321da4fd30e}; !- Summer Design Day Schedule Name

OS:Schedule:Day,
  {1ca0eed7-d0ff-420a-a289-38de5ab5d0ca}, !- Handle
  Medium Office Number of People All Other Days Schedule, !- Name
  {12e76567-764c-4ecb-b471-f8fd34d34b20}, !- Schedule Type Limits Name
  ,                                       !- Interpolate to Timestep
  24,                                     !- Hour 1
  0,                                      !- Minute 1
  0;                                      !- Value Until Time 1

OS:Schedule:Day,
  {47606a7b-83f7-460f-a1f6-8c2ab33c3fe0}, !- Handle
  Medium Office Number of People Summer Design Day Schedule, !- Name
  ,                                       !- Schedule Type Limits Name
  ,                                       !- Interpolate to Timestep
  6,                                      !- Hour 1
  0,                                      !- Minute 1
  0,                                      !- Value Until Time 1
  22,                                     !- Hour 2
  0,                                      !- Minute 2
  1,                                      !- Value Until Time 2
  24,                                     !- Hour 3
  0,                                      !- Minute 3
  0.05;                                   !- Value Until Time 3

OS:Schedule:Day,
  {8f72506d-1328-401f-b793-c321da4fd30e}, !- Handle
  Medium Office Number of People Summer Design Day Schedule 1, !- Name
  {12e76567-764c-4ecb-b471-f8fd34d34b20}, !- Schedule Type Limits Name
  ,                                       !- Interpolate to Timestep
  6,                                      !- Hour 1
  0,                                      !- Minute 1
  0,                                      !- Value Until Time 1
  22,                                     !- Hour 2
  0,                                      !- Minute 2
  1,                                      !- Value Until Time 2
  24,                                     !- Hour 3
  0,                                      !- Minute 3
  0.05;                                   !- Value Until Time 3

OS:Schedule:Rule,
  {008c6831-a454-4eca-a473-bc823437c6fc}, !- Handle
  Medium Office Number of People Schedule Weekdays Rule, !- Name
  {f8e49614-6adb-4749-ba3b-52c4db539539}, !- Schedule Ruleset Name
  1,                                      !- Rule Order
  {94fd9277-5510-4f52-a310-441cd4a185b5}, !- Day Schedule Name
  ,                                       !- Apply Sunday
  Yes,                                    !- Apply Monday
  Yes,                                    !- Apply Tuesday
  Yes,                                    !- Apply Wednesday
  Yes,                                    !- Apply Thursday
  Yes;                                    !- Apply Friday

OS:Schedule:Day,
  {94fd9277-5510-4f52-a310-441cd4a185b5}, !- Handle
  Medium Office Number of People Weekdays Schedule, !- Name
  {12e76567-764c-4ecb-b471-f8fd34d34b20}, !- Schedule Type Limits Name
  ,                                       !- Interpolate to Timestep
  6,                                      !- Hour 1
  0,                                      !- Minute 1
  0,                                      !- Value Until Time 1
  7,                                      !- Hour 2
  0,                                      !- Minute 2
  0.1,                                    !- Value Until Time 2
  8,                                      !- Hour 3
  0,                                      !- Minute 3
  0.2,                                    !- Value Until Time 3
  12,                                     !- Hour 4
  0,                                      !- Minute 4
  0.95,                                   !- Value Until Time 4
  13,                                     !- Hour 5
  0,                                      !- Minute 5
  0.5,                                    !- Value Until Time 5
  17,                                     !- Hour 6
  0,                                      !- Minute 6
  0.95,                                   !- Value Until Time 6
  18,                                     !- Hour 7
  0,                                      !- Minute 7
  0.7,                                    !- Value Until Time 7
  20,                                     !- Hour 8
  0,                                      !- Minute 8
  0.4,                                    !- Value Until Time 8
  22,                                     !- Hour 9
  0,                                      !- Minute 9
  0.1,                                    !- Value Until Time 9
  24,                                     !- Hour 10
  0,                                      !- Minute 10
  0.05;                                   !- Value Until Time 10

OS:Schedule:Rule,
  {55e2e269-7084-474f-b351-161e9c0a4a8f}, !- Handle
  Medium Office Number of People Schedule Saturday Rule, !- Name
  {f8e49614-6adb-4749-ba3b-52c4db539539}, !- Schedule Ruleset Name
  0,                                      !- Rule Order
  {881fa357-20ba-48bc-9775-b1120d67ebf3}, !- Day Schedule Name
  ,                                       !- Apply Sunday
  ,                                       !- Apply Monday
  ,                                       !- Apply Tuesday
  ,                                       !- Apply Wednesday
  ,                                       !- Apply Thursday
  ,                                       !- Apply Friday
  Yes;                                    !- Apply Saturday

OS:Schedule:Day,
  {881fa357-20ba-48bc-9775-b1120d67ebf3}, !- Handle
  Medium Office Number of People Saturday Schedule, !- Name
  {12e76567-764c-4ecb-b471-f8fd34d34b20}, !- Schedule Type Limits Name
  ,                                       !- Interpolate to Timestep
  6,                                      !- Hour 1
  0,                                      !- Minute 1
  0,                                      !- Value Until Time 1
  8,                                      !- Hour 2
  0,                                      !- Minute 2
  0.1,                                    !- Value Until Time 2
  14,                                     !- Hour 3
  0,                                      !- Minute 3
  0.5,                                    !- Value Until Time 3
  17,                                     !- Hour 4
  0,                                      !- Minute 4
  0.1,                                    !- Value Until Time 4
  24,                                     !- Hour 5
  0,                                      !- Minute 5
  0;                                      !- Value Until Time 5

OS:ScheduleTypeLimits,
  {12e76567-764c-4ecb-b471-f8fd34d34b20}, !- Handle
  Fractional,                             !- Name
  0,                                      !- Lower Limit Value {BasedOnField A4}
  1,                                      !- Upper Limit Value {BasedOnField A4}
  Continuous;                             !- Numeric Type

OS:Schedule:Ruleset,
  {78b3803d-7be8-4272-8f40-e5060e524cdb}, !- Handle
  Medium Office People Activity Level Schedule, !- Name
  {ed127255-ebe1-4f12-aedd-5a9f455f085c}, !- Schedule Type Limits Name
  {d7f6cc3b-abb5-4369-8310-ba5a01277782}; !- Default Day Schedule Name

OS:Schedule:Day,
  {d7f6cc3b-abb5-4369-8310-ba5a01277782}, !- Handle
  Medium Office People Activity Level All Days Schedule, !- Name
  {ed127255-ebe1-4f12-aedd-5a9f455f085c}, !- Schedule Type Limits Name
  ,                                       !- Interpolate to Timestep
  24,                                     !- Hour 1
  0,                                      !- Minute 1
  120;                                    !- Value Until Time 1

OS:ScheduleTypeLimits,
  {ed127255-ebe1-4f12-aedd-5a9f455f085c}, !- Handle
  ActivityLevel,                          !- Name
  0,                                      !- Lower Limit Value {BasedOnField A4}
  ,                                       !- Upper Limit Value {BasedOnField A4}
  Continuous,                             !- Numeric Type
  ActivityLevel;                          !- Unit Type

OS:Schedule:Ruleset,
  {a8dde2d0-cc4c-4ab8-92a5-ab463dfd2449}, !- Handle
  Medium Office Lighting Schedule,        !- Name
  {12e76567-764c-4ecb-b471-f8fd34d34b20}, !- Schedule Type Limits Name
  {3f207f73-5170-4f20-a6e5-1b88bec65b7a}, !- Default Day Schedule Name
  {18cdf2f6-f7da-409a-862c-a4760c4c4ea9}, !- Summer Design Day Schedule Name
  {778ad10e-fba9-4c65-b6f3-d12a0aeda7cc}; !- Winter Design Day Schedule Name

OS:Schedule:Day,
  {3f207f73-5170-4f20-a6e5-1b88bec65b7a}, !- Handle
  Medium Office Lighting All Other Days Schedule, !- Name
  {12e76567-764c-4ecb-b471-f8fd34d34b20}, !- Schedule Type Limits Name
  ,                                       !- Interpolate to Timestep
  24,                                     !- Hour 1
  0,                                      !- Minute 1
  0.05;                                   !- Value Until Time 1

OS:Schedule:Day,
  {07b7f59f-da35-4eef-bfd3-4afabe5f3f4b}, !- Handle
  Medium Office Lighting Summer Design Day Schedule, !- Name
  ,                                       !- Schedule Type Limits Name
  ,                                       !- Interpolate to Timestep
  6,                                      !- Hour 1
  0,                                      !- Minute 1
  1,                                      !- Value Until Time 1
  24,                                     !- Hour 2
  0,                                      !- Minute 2
  0;                                      !- Value Until Time 2

OS:Schedule:Day,
  {18cdf2f6-f7da-409a-862c-a4760c4c4ea9}, !- Handle
  Medium Office Lighting Summer Design Day Schedule 1, !- Name
  {12e76567-764c-4ecb-b471-f8fd34d34b20}, !- Schedule Type Limits Name
  ,                                       !- Interpolate to Timestep
  6,                                      !- Hour 1
  0,                                      !- Minute 1
  1,                                      !- Value Until Time 1
  24,                                     !- Hour 2
  0,                                      !- Minute 2
  0;                                      !- Value Until Time 2

OS:Schedule:Day,
  {5f4d6cd2-9e31-402c-aad4-71eb5890ce75}, !- Handle
  Medium Office Lighting Winter Design Day Schedule, !- Name
  ,                                       !- Schedule Type Limits Name
  ,                                       !- Interpolate to Timestep
  24,                                     !- Hour 1
  0,                                      !- Minute 1
  0;                                      !- Value Until Time 1

OS:Schedule:Day,
  {778ad10e-fba9-4c65-b6f3-d12a0aeda7cc}, !- Handle
  Medium Office Lighting Winter Design Day Schedule 1, !- Name
  {12e76567-764c-4ecb-b471-f8fd34d34b20}, !- Schedule Type Limits Name
  ,                                       !- Interpolate to Timestep
  24,                                     !- Hour 1
  0,                                      !- Minute 1
  0;                                      !- Value Until Time 1

OS:Schedule:Rule,
  {2fd5acba-3ace-43c4-a0d0-c75052cb1c90}, !- Handle
  Medium Office Lighting Schedule Weekdays Rule, !- Name
  {a8dde2d0-cc4c-4ab8-92a5-ab463dfd2449}, !- Schedule Ruleset Name
  1,                                      !- Rule Order
  {3d7fbdb0-3a91-4bfb-9e33-ae5716ab883e}, !- Day Schedule Name
  ,                                       !- Apply Sunday
  Yes,                                    !- Apply Monday
  Yes,                                    !- Apply Tuesday
  Yes,                                    !- Apply Wednesday
  Yes,                                    !- Apply Thursday
  Yes;                                    !- Apply Friday

OS:Schedule:Day,
  {3d7fbdb0-3a91-4bfb-9e33-ae5716ab883e}, !- Handle
  Medium Office Lighting Weekdays Schedule, !- Name
  {12e76567-764c-4ecb-b471-f8fd34d34b20}, !- Schedule Type Limits Name
  ,                                       !- Interpolate to Timestep
  5,                                      !- Hour 1
  0,                                      !- Minute 1
  0.05,                                   !- Value Until Time 1
  7,                                      !- Hour 2
  0,                                      !- Minute 2
  0.1,                                    !- Value Until Time 2
  8,                                      !- Hour 3
  0,                                      !- Minute 3
  0.3,                                    !- Value Until Time 3
  17,                                     !- Hour 4
  0,                                      !- Minute 4
  0.9,                                    !- Value Until Time 4
  18,                                     !- Hour 5
  0,                                      !- Minute 5
  0.7,                                    !- Value Until Time 5
  20,                                     !- Hour 6
  0,                                      !- Minute 6
  0.5,                                    !- Value Until Time 6
  22,                                     !- Hour 7
  0,                                      !- Minute 7
  0.3,                                    !- Value Until Time 7
  23,                                     !- Hour 8
  0,                                      !- Minute 8
  0.1,                                    !- Value Until Time 8
  24,                                     !- Hour 9
  0,                                      !- Minute 9
  0.05;                                   !- Value Until Time 9

OS:Schedule:Rule,
  {53bbf02c-cbac-45c0-8ca0-6ecdc432bbd7}, !- Handle
  Medium Office Lighting Schedule Saturday Rule, !- Name
  {a8dde2d0-cc4c-4ab8-92a5-ab463dfd2449}, !- Schedule Ruleset Name
  0,                                      !- Rule Order
  {83dcd3f0-8318-42f1-9900-184ea00353ae}, !- Day Schedule Name
  ,                                       !- Apply Sunday
  ,                                       !- Apply Monday
  ,                                       !- Apply Tuesday
  ,                                       !- Apply Wednesday
  ,                                       !- Apply Thursday
  ,                                       !- Apply Friday
  Yes;                                    !- Apply Saturday

OS:Schedule:Day,
  {83dcd3f0-8318-42f1-9900-184ea00353ae}, !- Handle
  Medium Office Lighting Saturday Schedule, !- Name
  {12e76567-764c-4ecb-b471-f8fd34d34b20}, !- Schedule Type Limits Name
  ,                                       !- Interpolate to Timestep
  6,                                      !- Hour 1
  0,                                      !- Minute 1
  0.05,                                   !- Value Until Time 1
  8,                                      !- Hour 2
  0,                                      !- Minute 2
  0.1,                                    !- Value Until Time 2
  14,                                     !- Hour 3
  0,                                      !- Minute 3
  0.5,                                    !- Value Until Time 3
  17,                                     !- Hour 4
  0,                                      !- Minute 4
  0.15,                                   !- Value Until Time 4
  24,                                     !- Hour 5
  0,                                      !- Minute 5
  0.05;                                   !- Value Until Time 5

OS:Schedule:Ruleset,
  {fd2e721b-6d7f-4107-8b6e-a4cefbb4afab}, !- Handle
  Medium Office Electric Equipment Schedule, !- Name
  {12e76567-764c-4ecb-b471-f8fd34d34b20}, !- Schedule Type Limits Name
  {96c64477-a2ca-4634-95fe-35f32e809a3f}, !- Default Day Schedule Name
  {876256be-8de9-464b-bbb7-418350a8235e}, !- Summer Design Day Schedule Name
  {14f670f7-0708-4598-88c8-435a80a4c913}; !- Winter Design Day Schedule Name

OS:Schedule:Day,
  {96c64477-a2ca-4634-95fe-35f32e809a3f}, !- Handle
  Medium Office Electric Equipment All Other Days Schedule, !- Name
  {12e76567-764c-4ecb-b471-f8fd34d34b20}, !- Schedule Type Limits Name
  ,                                       !- Interpolate to Timestep
  24,                                     !- Hour 1
  0,                                      !- Minute 1
  0.3;                                    !- Value Until Time 1

OS:Schedule:Day,
  {19e4af2a-6ae1-40d7-9aa1-39983b9fd0ae}, !- Handle
  Medium Office Electric Equipment Summer Design Day Schedule, !- Name
  ,                                       !- Schedule Type Limits Name
  ,                                       !- Interpolate to Timestep
  6,                                      !- Hour 1
  0,                                      !- Minute 1
  1,                                      !- Value Until Time 1
  24,                                     !- Hour 2
  0,                                      !- Minute 2
  0;                                      !- Value Until Time 2

OS:Schedule:Day,
  {876256be-8de9-464b-bbb7-418350a8235e}, !- Handle
  Medium Office Electric Equipment Summer Design Day Schedule 1, !- Name
  {12e76567-764c-4ecb-b471-f8fd34d34b20}, !- Schedule Type Limits Name
  ,                                       !- Interpolate to Timestep
  6,                                      !- Hour 1
  0,                                      !- Minute 1
  1,                                      !- Value Until Time 1
  24,                                     !- Hour 2
  0,                                      !- Minute 2
  0;                                      !- Value Until Time 2

OS:Schedule:Day,
  {515645ee-d45b-4d41-ac2f-f4172ecae0c2}, !- Handle
  Medium Office Electric Equipment Winter Design Day Schedule, !- Name
  ,                                       !- Schedule Type Limits Name
  ,                                       !- Interpolate to Timestep
  24,                                     !- Hour 1
  0,                                      !- Minute 1
  0;                                      !- Value Until Time 1

OS:Schedule:Day,
  {14f670f7-0708-4598-88c8-435a80a4c913}, !- Handle
  Medium Office Electric Equipment Winter Design Day Schedule 1, !- Name
  {12e76567-764c-4ecb-b471-f8fd34d34b20}, !- Schedule Type Limits Name
  ,                                       !- Interpolate to Timestep
  24,                                     !- Hour 1
  0,                                      !- Minute 1
  0;                                      !- Value Until Time 1

OS:Schedule:Rule,
  {f44ef746-6843-4eba-a991-a9e6417624bb}, !- Handle
  Medium Office Electric Equipment Schedule Weekdays Rule, !- Name
  {fd2e721b-6d7f-4107-8b6e-a4cefbb4afab}, !- Schedule Ruleset Name
  1,                                      !- Rule Order
  {d889d90b-d7a2-449e-8235-f9b6140436f7}, !- Day Schedule Name
  ,                                       !- Apply Sunday
  Yes,                                    !- Apply Monday
  Yes,                                    !- Apply Tuesday
  Yes,                                    !- Apply Wednesday
  Yes,                                    !- Apply Thursday
  Yes;                                    !- Apply Friday

OS:Schedule:Day,
  {d889d90b-d7a2-449e-8235-f9b6140436f7}, !- Handle
  Medium Office Electric Equipment Weekdays Schedule, !- Name
  {12e76567-764c-4ecb-b471-f8fd34d34b20}, !- Schedule Type Limits Name
  ,                                       !- Interpolate to Timestep
  8,                                      !- Hour 1
  0,                                      !- Minute 1
  0.4,                                    !- Value Until Time 1
  12,                                     !- Hour 2
  0,                                      !- Minute 2
  0.9,                                    !- Value Until Time 2
  13,                                     !- Hour 3
  0,                                      !- Minute 3
  0.8,                                    !- Value Until Time 3
  17,                                     !- Hour 4
  0,                                      !- Minute 4
  0.9,                                    !- Value Until Time 4
  18,                                     !- Hour 5
  0,                                      !- Minute 5
  0.8,                                    !- Value Until Time 5
  20,                                     !- Hour 6
  0,                                      !- Minute 6
  0.6,                                    !- Value Until Time 6
  22,                                     !- Hour 7
  0,                                      !- Minute 7
  0.5,                                    !- Value Until Time 7
  24,                                     !- Hour 8
  0,                                      !- Minute 8
  0.4;                                    !- Value Until Time 8

OS:Schedule:Rule,
  {957af6c5-58de-4aeb-bc93-9fa30b767079}, !- Handle
  Medium Office Electric Equipment Schedule Saturday Rule, !- Name
  {fd2e721b-6d7f-4107-8b6e-a4cefbb4afab}, !- Schedule Ruleset Name
  0,                                      !- Rule Order
  {b9e9d8ce-2515-404a-840a-2dc5b2c30895}, !- Day Schedule Name
  ,                                       !- Apply Sunday
  ,                                       !- Apply Monday
  ,                                       !- Apply Tuesday
  ,                                       !- Apply Wednesday