
OS:Version,
  {8d211d6a-f9c6-4bc8-ac34-5e3838714ed1}, !- Handle
  1.9.2;                                  !- Version Identifier

OS:Construction,
  {13875d7f-8788-4e36-bdab-6cb833e964a6}, !- Handle
  Interior Window,                        !- Name
  ,                                       !- Surface Rendering Name
  {056bb009-3d84-45c7-9071-e79d6c4d0c91}; !- Layer 1

OS:WindowMaterial:SimpleGlazingSystem,
  {056bb009-3d84-45c7-9071-e79d6c4d0c91}, !- Handle
  Simple Glazing,                         !- Name
  3.23646,                                !- U-Factor {W/m2-K}
  0.39,                                   !- Solar Heat Gain Coefficient
  0.6;                                    !- Visible Transmittance

OS:ComponentData,
  {2519564e-354d-4732-8b1b-65c736d182c9}, !- Handle
  Component Data 1,                       !- Name
  {d950b9dc-5e51-43d9-9f11-85b3f46a58ec}, !- UUID
  {19b31689-5a2c-452f-b2f5-bbb4c097d9c9}, !- Version UUID
  1445287427,                             !- Creation Timestamp
  1445287427,                             !- Version Timestamp
  {13875d7f-8788-4e36-bdab-6cb833e964a6}, !- Name of Object 1
  {056bb009-3d84-45c7-9071-e79d6c4d0c91}; !- Name of Object 2

