
OS:Version,
  {65c5194f-4a6a-4c91-9f49-c933bf157193}, !- Handle
  1.12.1;                                 !- Version Identifier

OS:SimulationControl,
  {c71a61a7-849b-4778-bf44-d1e1cd2044dc}, !- Handle
  Yes,                                    !- Do Zone Sizing Calculation
  Yes,                                    !- Do System Sizing Calculation
  ,                                       !- Do Plant Sizing Calculation
  No,                                     !- Run Simulation for Sizing Periods
  Yes;                                    !- Run Simulation for Weather File Run Periods

OS:Timestep,
  {567fd03c-24b4-4131-a396-f2bf42aa5e49}, !- Handle
  6;                                      !- Number of Timesteps per Hour

OS:RunPeriod,
  {c1e14b74-0fd8-44c8-9355-28eb8cd6bd7f}, !- Handle
  Run Period 1,                           !- Name
  1,                                      !- Begin Month
  1,                                      !- Begin Day of Month
  12,                                     !- End Month
  31,                                     !- End Day of Month
  No,                                     !- Use Weather File Holidays and Special Days
  No,                                     !- Use Weather File Daylight Saving Period
  No,                                     !- Apply Weekend Holiday Rule
  Yes,                                    !- Use Weather File Rain Indicators
  Yes,                                    !- Use Weather File Snow Indicators
  1;                                      !- Number of Times Runperiod to be Repeated

OS:SurfaceConvectionAlgorithm:Inside,
  {19b5f075-a961-42e6-8af1-72a400c7174d}, !- Handle
  TARP;                                   !- Algorithm

OS:SurfaceConvectionAlgorithm:Outside,
  {33b6ce8a-7ddf-4cf5-ba30-1bc512c082fe}, !- Handle
  DOE-2;                                  !- Algorithm

OS:HeatBalanceAlgorithm,
  {4ebce05b-eaa7-4d4f-af55-43d6bbff50b7}, !- Handle
  ConductionTransferFunction,             !- Algorithm
  200;                                    !- Surface Temperature Upper Limit {C}

OS:ZoneAirHeatBalanceAlgorithm,
  {07029544-bc30-4cca-8cdd-b8091a24bc32}, !- Handle
  ThirdOrderBackwardDifference;           !- Algorithm

OS:ConvergenceLimits,
  {fcbf24a7-4141-4ee3-b6eb-088cf11b6020}, !- Handle
  1;                                      !- Minimum System Timestep {minutes}

OS:ShadowCalculation,
  {913ba69c-1c3d-495f-9ab6-bd326fe530a5}, !- Handle
  20,                                     !- Calculation Frequency
  15000;                                  !- Maximum Figures in Shadow Overlap Calculations

OS:Site,
  {d5b0af5c-ae2b-4fc8-b010-b07030c9b559}, !- Handle
  Site 1,                                 !- Name
  41.77,                                  !- Latitude {deg}
  -87.75,                                 !- Longitude {deg}
  -6,                                     !- Time Zone {hr}
  190,                                    !- Elevation {m}
  ;                                       !- Terrain

OS:Site:GroundTemperature:BuildingSurface,
  {ad936be5-974e-4ff0-9550-2aa34ea5e6e4}, !- Handle
  19.527,                                 !- January Ground Temperature {C}
  19.502,                                 !- February Ground Temperature {C}
  19.536,                                 !- March Ground Temperature {C}
  19.598,                                 !- April Ground Temperature {C}
  20.002,                                 !- May Ground Temperature {C}
  21.64,                                  !- June Ground Temperature {C}
  22.225,                                 !- July Ground Temperature {C}
  22.375,                                 !- August Ground Temperature {C}
  21.449,                                 !- September Ground Temperature {C}
  20.121,                                 !- October Ground Temperature {C}
  19.802,                                 !- November Ground Temperature {C}
  19.633;                                 !- December Ground Temperature {C}

OS:Site:GroundTemperature:Deep,
  {6a057dfc-dd65-4322-9db3-5cbb01ed18ae}, !- Handle
  19.527,                                 !- January Deep Ground Temperature {C}
  19.502,                                 !- February Deep Ground Temperature {C}
  19.536,                                 !- March Deep Ground Temperature {C}
  19.598,                                 !- April Deep Ground Temperature {C}
  20.002,                                 !- May Deep Ground Temperature {C}
  21.64,                                  !- June Deep Ground Temperature {C}
  22.225,                                 !- July Deep Ground Temperature {C}
  22.375,                                 !- August Deep Ground Temperature {C}
  21.449,                                 !- September Deep Ground Temperature {C}
  20.121,                                 !- October Deep Ground Temperature {C}
  19.802,                                 !- November Deep Ground Temperature {C}
  19.633;                                 !- December Deep Ground Temperature {C}

OS:Site:WaterMainsTemperature,
  {dbe58c04-7793-4f3a-a91d-20049d5d6cc8}, !- Handle
  Correlation,                            !- Calculation Method
  ,                                       !- Temperature Schedule Name
  9.69,                                   !- Annual Average Outdoor Air Temperature {C}
  28.1;                                   !- Maximum Difference In Monthly Average Outdoor Air Temperatures {deltaC}

OS:SizingPeriod:DesignDay,
  {3e8c9587-c78c-43e7-be2d-cd8c4f2e8474}, !- Handle
  Sizing Period Design Day 1,             !- Name
  -20.6,                                  !- Maximum Dry-Bulb Temperature {C}
  0,                                      !- Daily Dry-Bulb Temperature Range {deltaC}
  -20.6,                                  !- Humidity Indicating Conditions at Maximum Dry-Bulb
  99063,                                  !- Barometric Pressure {Pa}
  4.9,                                    !- Wind Speed {m/s}
  270,                                    !- Wind Direction {deg}
  0,                                      !- Sky Clearness
  0,                                      !- Rain Indicator
  0,                                      !- Snow Indicator
  21,                                     !- Day of Month
  1,                                      !- Month
  WinterDesignDay,                        !- Day Type
  0,                                      !- Daylight Saving Time Indicator
  WetBulb,                                !- Humidity Indicating Type
  ,                                       !- Humidity Indicating Day Schedule Name
  DefaultMultipliers,                     !- Dry-Bulb Temperature Range Modifier Type
  ,                                       !- Dry-Bulb Temperature Range Modifier Schedule Name
  AshraeClearSky;                         !- Solar Model Indicator

OS:SizingPeriod:DesignDay,
  {a7d2b44a-0785-4aed-b095-176cb0baf31e}, !- Handle
  Sizing Period Design Day 2,             !- Name
  33.2,                                   !- Maximum Dry-Bulb Temperature {C}
  10.7,                                   !- Daily Dry-Bulb Temperature Range {deltaC}
  23.8,                                   !- Humidity Indicating Conditions at Maximum Dry-Bulb
  99063,                                  !- Barometric Pressure {Pa}
  5.3,                                    !- Wind Speed {m/s}
  230,                                    !- Wind Direction {deg}
  1,                                      !- Sky Clearness
  0,                                      !- Rain Indicator
  0,                                      !- Snow Indicator
  21,                                     !- Day of Month
  7,                                      !- Month
  SummerDesignDay,                        !- Day Type
  0,                                      !- Daylight Saving Time Indicator
  WetBulb,                                !- Humidity Indicating Type
  ,                                       !- Humidity Indicating Day Schedule Name
  DefaultMultipliers,                     !- Dry-Bulb Temperature Range Modifier Type
  ,                                       !- Dry-Bulb Temperature Range Modifier Schedule Name
  AshraeClearSky;                         !- Solar Model Indicator

OS:ScheduleTypeLimits,
  {ea10e7d4-bf3f-41c9-91cf-86926a841c97}, !- Handle
  Temperature,                            !- Name
  -60,                                    !- Lower Limit Value
  200,                                    !- Upper Limit Value
  CONTINUOUS,                             !- Numeric Type
  Temperature;                            !- Unit Type

OS:DefaultScheduleSet,
  {f513a09f-7b1e-4ca3-b46d-e8d4bba1fa49}, !- Handle
  Default Schedules,                      !- Name
  ,                                       !- Hours of Operation Schedule Name
  {67c41017-54be-4616-ae74-58378cc44290}, !- Number of People Schedule Name
  {c55d7220-974d-4dcc-97a9-3145d1509567}, !- People Activity Level Schedule Name
  {44c23631-8e15-4ee3-97be-858d1768f2ba}, !- Lighting Schedule Name
  {87278af0-5889-4fa9-9f32-c8d8c007a087}, !- Electric Equipment Schedule Name
  {cf474230-db90-4243-a3f9-cdad7d225637}, !- Gas Equipment Schedule Name
  {d0c6026e-6a9f-41bd-8704-e3d22e714055}, !- Hot Water Equipment Schedule Name
  {5b92cf15-1a15-4923-ba28-eabf5dc63861}, !- Infiltration Schedule Name
  ,                                       !- Steam Equipment Schedule Name
  ;                                       !- Other Equipment Schedule Name

OS:Schedule:Ruleset,
  {67c41017-54be-4616-ae74-58378cc44290}, !- Handle
  Medium Office Number of People Schedule, !- Name
  {3615628d-1961-4278-98bf-c6a37e9c235d}, !- Schedule Type Limits Name
  {44b64491-430a-47d5-848b-79c1a4f7c6bc}, !- Default Day Schedule Name
  {da77e1ca-5f01-471b-a387-85a3e928e58c}; !- Summer Design Day Schedule Name

OS:Schedule:Day,
  {44b64491-430a-47d5-848b-79c1a4f7c6bc}, !- Handle
  Medium Office Number of People All Other Days Schedule, !- Name
  {3615628d-1961-4278-98bf-c6a37e9c235d}, !- Schedule Type Limits Name
  ,                                       !- Interpolate to Timestep
  24,                                     !- Hour 1
  0,                                      !- Minute 1
  0;                                      !- Value Until Time 1

OS:Schedule:Day,
  {d1b389d4-b975-4cba-9347-172ac34717fe}, !- Handle
  Medium Office Number of People Summer Design Day Schedule, !- Name
  ,                                       !- Schedule Type Limits Name
  ,                                       !- Interpolate to Timestep
  6,                                      !- Hour 1
  0,                                      !- Minute 1
  0,                                      !- Value Until Time 1
  22,                                     !- Hour 2
  0,                                      !- Minute 2
  1,                                      !- Value Until Time 2
  24,                                     !- Hour 3
  0,                                      !- Minute 3
  0.05;                                   !- Value Until Time 3

OS:Schedule:Day,
  {da77e1ca-5f01-471b-a387-85a3e928e58c}, !- Handle
  Medium Office Number of People Summer Design Day Schedule 1, !- Name
  {3615628d-1961-4278-98bf-c6a37e9c235d}, !- Schedule Type Limits Name
  ,                                       !- Interpolate to Timestep
  6,                                      !- Hour 1
  0,                                      !- Minute 1
  0,                                      !- Value Until Time 1
  22,                                     !- Hour 2
  0,                                      !- Minute 2
  1,                                      !- Value Until Time 2
  24,                                     !- Hour 3
  0,                                      !- Minute 3
  0.05;                                   !- Value Until Time 3

OS:Schedule:Rule,
  {4c682026-69bb-43ee-a5c8-98d8bfc494a2}, !- Handle
  Medium Office Number of People Schedule Weekdays Rule, !- Name
  {67c41017-54be-4616-ae74-58378cc44290}, !- Schedule Ruleset Name
  1,                                      !- Rule Order
  {d27e8d44-c31a-4922-a04f-1ab2193467d7}, !- Day Schedule Name
  ,                                       !- Apply Sunday
  Yes,                                    !- Apply Monday
  Yes,                                    !- Apply Tuesday
  Yes,                                    !- Apply Wednesday
  Yes,                                    !- Apply Thursday
  Yes;                                    !- Apply Friday

OS:Schedule:Day,
  {d27e8d44-c31a-4922-a04f-1ab2193467d7}, !- Handle
  Medium Office Number of People Weekdays Schedule, !- Name
  {3615628d-1961-4278-98bf-c6a37e9c235d}, !- Schedule Type Limits Name
  ,                                       !- Interpolate to Timestep
  6,                                      !- Hour 1
  0,                                      !- Minute 1
  0,                                      !- Value Until Time 1
  7,                                      !- Hour 2
  0,                                      !- Minute 2
  0.1,                                    !- Value Until Time 2
  8,                                      !- Hour 3
  0,                                      !- Minute 3
  0.2,                                    !- Value Until Time 3
  12,                                     !- Hour 4
  0,                                      !- Minute 4
  0.95,                                   !- Value Until Time 4
  13,                                     !- Hour 5
  0,                                      !- Minute 5
  0.5,                                    !- Value Until Time 5
  17,                                     !- Hour 6
  0,                                      !- Minute 6
  0.95,                                   !- Value Until Time 6
  18,                                     !- Hour 7
  0,                                      !- Minute 7
  0.7,                                    !- Value Until Time 7
  20,                                     !- Hour 8
  0,                                      !- Minute 8
  0.4,                                    !- Value Until Time 8
  22,                                     !- Hour 9
  0,                                      !- Minute 9
  0.1,                                    !- Value Until Time 9
  24,                                     !- Hour 10
  0,                                      !- Minute 10
  0.05;                                   !- Value Until Time 10

OS:Schedule:Rule,
  {263d8e86-bd03-4f98-8bfe-bc725f28f463}, !- Handle
  Medium Office Number of People Schedule Saturday Rule, !- Name
  {67c41017-54be-4616-ae74-58378cc44290}, !- Schedule Ruleset Name
  0,                                      !- Rule Order
  {b7a13a15-e4fa-45dd-a497-e27c121fb295}, !- Day Schedule Name
  ,                                       !- Apply Sunday
  ,                                       !- Apply Monday
  ,                                       !- Apply Tuesday
  ,                                       !- Apply Wednesday
  ,                                       !- Apply Thursday
  ,                                       !- Apply Friday
  Yes;                                    !- Apply Saturday

OS:Schedule:Day,
  {b7a13a15-e4fa-45dd-a497-e27c121fb295}, !- Handle
  Medium Office Number of People Saturday Schedule, !- Name
  {3615628d-1961-4278-98bf-c6a37e9c235d}, !- Schedule Type Limits Name
  ,                                       !- Interpolate to Timestep
  6,                                      !- Hour 1
  0,                                      !- Minute 1
  0,                                      !- Value Until Time 1
  8,                                      !- Hour 2
  0,                                      !- Minute 2
  0.1,                                    !- Value Until Time 2
  14,                                     !- Hour 3
  0,                                      !- Minute 3
  0.5,                                    !- Value Until Time 3
  17,                                     !- Hour 4
  0,                                      !- Minute 4
  0.1,                                    !- Value Until Time 4
  24,                                     !- Hour 5
  0,                                      !- Minute 5
  0;                                      !- Value Until Time 5

OS:ScheduleTypeLimits,
  {3615628d-1961-4278-98bf-c6a37e9c235d}, !- Handle
  Fractional,                             !- Name
  0,                                      !- Lower Limit Value
  1,                                      !- Upper Limit Value
  Continuous;                             !- Numeric Type

OS:Schedule:Ruleset,
  {c55d7220-974d-4dcc-97a9-3145d1509567}, !- Handle
  Medium Office People Activity Level Schedule, !- Name
  {d3253bc9-3637-4045-8b9e-313f3cbe9f21}, !- Schedule Type Limits Name
  {46846cea-140b-4b2d-be61-f66ba88e7498}; !- Default Day Schedule Name

OS:Schedule:Day,
  {46846cea-140b-4b2d-be61-f66ba88e7498}, !- Handle
  Medium Office People Activity Level All Days Schedule, !- Name
  {d3253bc9-3637-4045-8b9e-313f3cbe9f21}, !- Schedule Type Limits Name
  ,                                       !- Interpolate to Timestep
  24,                                     !- Hour 1
  0,                                      !- Minute 1
  120;                                    !- Value Until Time 1

OS:ScheduleTypeLimits,
  {d3253bc9-3637-4045-8b9e-313f3cbe9f21}, !- Handle
  ActivityLevel,                          !- Name
  0,                                      !- Lower Limit Value
  ,                                       !- Upper Limit Value
  Continuous,                             !- Numeric Type
  ActivityLevel;                          !- Unit Type

OS:Schedule:Ruleset,
  {44c23631-8e15-4ee3-97be-858d1768f2ba}, !- Handle
  Medium Office Lighting Schedule,        !- Name
  {3615628d-1961-4278-98bf-c6a37e9c235d}, !- Schedule Type Limits Name
  {4ef5c588-9561-45e0-a247-94a09499f3e1}, !- Default Day Schedule Name
  {397902b1-94c0-4d97-a7c9-fae2c189febb}, !- Summer Design Day Schedule Name
  {b696cac2-b734-4ec1-9c53-54679fbb9f82}; !- Winter Design Day Schedule Name

OS:Schedule:Day,
  {4ef5c588-9561-45e0-a247-94a09499f3e1}, !- Handle
  Medium Office Lighting All Other Days Schedule, !- Name
  {3615628d-1961-4278-98bf-c6a37e9c235d}, !- Schedule Type Limits Name
  ,                                       !- Interpolate to Timestep
  24,                                     !- Hour 1
  0,                                      !- Minute 1
  0.05;                                   !- Value Until Time 1

OS:Schedule:Day,
  {24122431-12e0-4fb5-932f-65bba0de4dd1}, !- Handle
  Medium Office Lighting Summer Design Day Schedule, !- Name
  ,                                       !- Schedule Type Limits Name
  ,                                       !- Interpolate to Timestep
  6,                                      !- Hour 1
  0,                                      !- Minute 1
  1,                                      !- Value Until Time 1
  24,                                     !- Hour 2
  0,                                      !- Minute 2
  0;                                      !- Value Until Time 2

OS:Schedule:Day,
  {397902b1-94c0-4d97-a7c9-fae2c189febb}, !- Handle
  Medium Office Lighting Summer Design Day Schedule 1, !- Name
  {3615628d-1961-4278-98bf-c6a37e9c235d}, !- Schedule Type Limits Name
  ,                                       !- Interpolate to Timestep
  6,                                      !- Hour 1
  0,                                      !- Minute 1
  1,                                      !- Value Until Time 1
  24,                                     !- Hour 2
  0,                                      !- Minute 2
  0;                                      !- Value Until Time 2

OS:Schedule:Day,
  {605ec34c-b254-45fc-b791-1ef4f4fee68b}, !- Handle
  Medium Office Lighting Winter Design Day Schedule, !- Name
  ,                                       !- Schedule Type Limits Name
  ,                                       !- Interpolate to Timestep
  24,                                     !- Hour 1
  0,                                      !- Minute 1
  0;                                      !- Value Until Time 1

OS:Schedule:Day,
  {b696cac2-b734-4ec1-9c53-54679fbb9f82}, !- Handle
  Medium Office Lighting Winter Design Day Schedule 1, !- Name
  {3615628d-1961-4278-98bf-c6a37e9c235d}, !- Schedule Type Limits Name
  ,                                       !- Interpolate to Timestep
  24,                                     !- Hour 1
  0,                                      !- Minute 1
  0;                                      !- Value Until Time 1

OS:Schedule:Rule,
  {de742af9-393e-43a7-91de-14a3c9c69004}, !- Handle
  Medium Office Lighting Schedule Weekdays Rule, !- Name
  {44c23631-8e15-4ee3-97be-858d1768f2ba}, !- Schedule Ruleset Name
  1,                                      !- Rule Order
  {3628d8ec-9af7-491f-a067-6d1dd7b11a85}, !- Day Schedule Name
  ,                                       !- Apply Sunday
  Yes,                                    !- Apply Monday
  Yes,                                    !- Apply Tuesday
  Yes,                                    !- Apply Wednesday
  Yes,                                    !- Apply Thursday
  Yes;                                    !- Apply Friday

OS:Schedule:Day,
  {3628d8ec-9af7-491f-a067-6d1dd7b11a85}, !- Handle
  Medium Office Lighting Weekdays Schedule, !- Name
  {3615628d-1961-4278-98bf-c6a37e9c235d}, !- Schedule Type Limits Name
  ,                                       !- Interpolate to Timestep
  5,                                      !- Hour 1
  0,                                      !- Minute 1
  0.05,                                   !- Value Until Time 1
  7,                                      !- Hour 2
  0,                                      !- Minute 2
  0.1,                                    !- Value Until Time 2
  8,                                      !- Hour 3
  0,                                      !- Minute 3
  0.3,                                    !- Value Until Time 3
  17,                                     !- Hour 4
  0,                                      !- Minute 4
  0.9,                                    !- Value Until Time 4
  18,                                     !- Hour 5
  0,                                      !- Minute 5
  0.7,                                    !- Value Until Time 5
  20,                                     !- Hour 6
  0,                                      !- Minute 6
  0.5,                                    !- Value Until Time 6
  22,                                     !- Hour 7
  0,                                      !- Minute 7
  0.3,                                    !- Value Until Time 7
  23,                                     !- Hour 8
  0,                                      !- Minute 8
  0.1,                                    !- Value Until Time 8
  24,                                     !- Hour 9
  0,                                      !- Minute 9
  0.05;                                   !- Value Until Time 9

OS:Schedule:Rule,
  {d7354f1a-ff84-4406-b5af-ac1f782f2ed5}, !- Handle
  Medium Office Lighting Schedule Saturday Rule, !- Name
  {44c23631-8e15-4ee3-97be-858d1768f2ba}, !- Schedule Ruleset Name
  0,                                      !- Rule Order
  {d7b6ab8e-046f-42c1-b482-331672cb2eec}, !- Day Schedule Name
  ,                                       !- Apply Sunday
  ,                                       !- Apply Monday
  ,                                       !- Apply Tuesday
  ,                                       !- Apply Wednesday
  ,                                       !- Apply Thursday
  ,                                       !- Apply Friday
  Yes;                                    !- Apply Saturday

OS:Schedule:Day,
  {d7b6ab8e-046f-42c1-b482-331672cb2eec}, !- Handle
  Medium Office Lighting Saturday Schedule, !- Name
  {3615628d-1961-4278-98bf-c6a37e9c235d}, !- Schedule Type Limits Name
  ,                                       !- Interpolate to Timestep
  6,                                      !- Hour 1
  0,                                      !- Minute 1
  0.05,                                   !- Value Until Time 1
  8,                                      !- Hour 2
  0,                                      !- Minute 2
  0.1,                                    !- Value Until Time 2
  14,                                     !- Hour 3
  0,                                      !- Minute 3
  0.5,                                    !- Value Until Time 3
  17,                                     !- Hour 4
  0,                                      !- Minute 4
  0.15,                                   !- Value Until Time 4
  24,                                     !- Hour 5
  0,                                      !- Minute 5
  0.05;                                   !- Value Until Time 5

OS:Schedule:Ruleset,
  {87278af0-5889-4fa9-9f32-c8d8c007a087}, !- Handle
  Medium Office Electric Equipment Schedule, !- Name
  {3615628d-1961-4278-98bf-c6a37e9c235d}, !- Schedule Type Limits Name
  {a8e15763-2275-4619-98dd-fff0573ee4e4}, !- Default Day Schedule Name
  {696aa983-7220-4863-89b3-35338a3659e5}, !- Summer Design Day Schedule Name
  {46d497c3-38b3-4497-9108-c5b314445f4a}; !- Winter Design Day Schedule Name

OS:Schedule:Day,
  {a8e15763-2275-4619-98dd-fff0573ee4e4}, !- Handle
  Medium Office Electric Equipment All Other Days Schedule, !- Name
  {3615628d-1961-4278-98bf-c6a37e9c235d}, !- Schedule Type Limits Name
  ,                                       !- Interpolate to Timestep
  24,                                     !- Hour 1
  0,                                      !- Minute 1
  0.3;                                    !- Value Until Time 1

OS:Schedule:Day,
  {2ec0aa8a-a54d-4346-956c-c35b7810e8fe}, !- Handle
  Medium Office Electric Equipment Summer Design Day Schedule, !- Name
  ,                                       !- Schedule Type Limits Name
  ,                                       !- Interpolate to Timestep
  6,                                      !- Hour 1
  0,                                      !- Minute 1
  1,                                      !- Value Until Time 1
  24,                                     !- Hour 2
  0,                                      !- Minute 2
  0;                                      !- Value Until Time 2

OS:Schedule:Day,
  {696aa983-7220-4863-89b3-35338a3659e5}, !- Handle
  Medium Office Electric Equipment Summer Design Day Schedule 1, !- Name
  {3615628d-1961-4278-98bf-c6a37e9c235d}, !- Schedule Type Limits Name
  ,                                       !- Interpolate to Timestep
  6,                                      !- Hour 1
  0,                                      !- Minute 1
  1,                                      !- Value Until Time 1
  24,                                     !- Hour 2
  0,                                      !- Minute 2
  0;                                      !- Value Until Time 2

OS:Schedule:Day,
  {d4e1a2c7-b4f3-4ed3-a58e-1f204b6c3cb6}, !- Handle
  Medium Office Electric Equipment Winter Design Day Schedule, !- Name
  ,                                       !- Schedule Type Limits Name
  ,                                       !- Interpolate to Timestep
  24,                                     !- Hour 1
  0,                                      !- Minute 1
  0;                                      !- Value Until Time 1

OS:Schedule:Day,
  {46d497c3-38b3-4497-9108-c5b314445f4a}, !- Handle
  Medium Office Electric Equipment Winter Design Day Schedule 1, !- Name
  {3615628d-1961-4278-98bf-c6a37e9c235d}, !- Schedule Type Limits Name
  ,                                       !- Interpolate to Timestep
  24,                                     !- Hour 1
  0,                                      !- Minute 1
  0;                                      !- Value Until Time 1

OS:Schedule:Rule,
  {0c170286-e1e1-4671-bd25-a100f50ad9df}, !- Handle
  Medium Office Electric Equipment Schedule Weekdays Rule, !- Name
  {87278af0-5889-4fa9-9f32-c8d8c007a087}, !- Schedule Ruleset Name
  1,                                      !- Rule Order
  {4c1d318b-2372-4055-a89b-031bee23810b}, !- Day Schedule Name
  ,                                       !- Apply Sunday
  Yes,                                    !- Apply Monday
  Yes,                                    !- Apply Tuesday
  Yes,                                    !- Apply Wednesday
  Yes,                                    !- Apply Thursday
  Yes;                                    !- Apply Friday

OS:Schedule:Day,
  {4c1d318b-2372-4055-a89b-031bee23810b}, !- Handle
  Medium Office Electric Equipment Weekdays Schedule, !- Name
  {3615628d-1961-4278-98bf-c6a37e9c235d}, !- Schedule Type Limits Name
  ,                                       !- Interpolate to Timestep
  8,                                      !- Hour 1
  0,                                      !- Minute 1
  0.4,                                    !- Value Until Time 1
  12,                                     !- Hour 2
  0,                                      !- Minute 2
  0.9,                                    !- Value Until Time 2
  13,                                     !- Hour 3
  0,                                      !- Minute 3
  0.8,                                    !- Value Until Time 3
  17,                                     !- Hour 4
  0,                                      !- Minute 4
  0.9,                                    !- Value Until Time 4
  18,                                     !- Hour 5
  0,                                      !- Minute 5
  0.8,                                    !- Value Until Time 5
  20,                                     !- Hour 6