
OS:Version,
  {a69b4712-6b39-4c54-bf12-f5a8e6a831a9}, !- Handle
  3.4.0;                                  !- Version Identifier

OS:Material:AirWall,
  {9b235ef8-4eff-49bb-9593-12fd9fe7c319}, !- Handle
  Material Air Wall 1;                    !- Name

OS:Construction,
  {0d4c90f4-ae6c-4f3d-801c-ccc2f8db6d35}, !- Handle
  Construction 1,                         !- Name
  ,                                       !- Surface Rendering Name
  {9b235ef8-4eff-49bb-9593-12fd9fe7c319}; !- Layer 1

OS:Surface,
  {f5be472e-b18e-4450-90cc-1edb75fd8f14}, !- Handle
  Surface 1,                              !- Name
  RoofCeiling,                            !- Surface Type
  {0d4c90f4-ae6c-4f3d-801c-ccc2f8db6d35}, !- Construction Name
  ,                                       !- Space Name
  Outdoors,                               !- Outside Boundary Condition
  ,                                       !- Outside Boundary Condition Object
  SunExposed,                             !- Sun Exposure
  WindExposed,                            !- Wind Exposure
  ,                                       !- View Factor to Ground
  ,                                       !- Number of Vertices
  0, 1, 0,                                !- X,Y,Z Vertex 1 {m}
  0, 0, 0,                                !- X,Y,Z Vertex 2 {m}
  1, 0, 0,                                !- X,Y,Z Vertex 3 {m}
  1, 1, 0;                                !- X,Y,Z Vertex 4 {m}

