
OS:Version,
  {f05829be-a9a4-40ac-8152-75e2c07f97ad}, !- Handle
  3.4.0;                                  !- Version Identifier

OS:Material:AirWall,
  {d5d02138-7c1d-4606-9d33-a70aee97ab22}, !- Handle
  Material Air Wall 1;                    !- Name

OS:Construction,
  {5b71bee9-5d64-4c6f-bc6d-8cd3ad4b1114}, !- Handle
  Construction 1,                         !- Name
  {f89cf85d-7e07-4782-9958-6be719e44b25}, !- Surface Rendering Name
  {d5d02138-7c1d-4606-9d33-a70aee97ab22}; !- Layer 1

OS:Rendering:Color,
  {f89cf85d-7e07-4782-9958-6be719e44b25}, !- Handle
  AirWall RenderingColor,                 !- Name
  0,                                      !- Rendering Red Value
  127,                                    !- Rendering Green Value
  255;                                    !- Rendering Blue Value

OS:Surface,
  {e63296c4-2c28-4365-a9b8-b27379e13170}, !- Handle
  Surface 1,                              !- Name
  RoofCeiling,                            !- Surface Type
  {5b71bee9-5d64-4c6f-bc6d-8cd3ad4b1114}, !- Construction Name
  ,                                       !- Space Name
  Outdoors,                               !- Outside Boundary Condition
  ,                                       !- Outside Boundary Condition Object
  SunExposed,                             !- Sun Exposure
  WindExposed,                            !- Wind Exposure
  ,                                       !- View Factor to Ground
  ,                                       !- Number of Vertices
  0, 1, 0,                                !- X,Y,Z Vertex 1 {m}
  0, 0, 0,                                !- X,Y,Z Vertex 2 {m}
  1, 0, 0,                                !- X,Y,Z Vertex 3 {m}
  1, 1, 0;                                !- X,Y,Z Vertex 4 {m}

