
OS:Version,
  {7bba6928-aad0-472b-b0db-354b0b66a27c}, !- Handle
  3.4.0;                                  !- Version Identifier

OS:Coil:Cooling:DX:SingleSpeed,
  {4c62a7f2-f781-49f2-b27e-ccecb9b89553}, !- Handle
  CC with blanks,                         !- Name
  {8d7f47ff-7806-485c-9d57-d23a1d87c551}, !- Availability Schedule Name
  autosize,                               !- Rated Total Cooling Capacity {W}
  autosize,                               !- Rated Sensible Heat Ratio
  3,                                      !- Rated COP {W/W}
  autosize,                               !- Rated Air Flow Rate {m3/s}
  773.3,                                  !- Rated Evaporator Fan Power Per Volume Flow Rate {W/(m3/s)}
  ,                                       !- Air Inlet Node Name
  ,                                       !- Air Outlet Node Name
  {56405d61-f351-4602-9d14-47e8799b1064}, !- Total Cooling Capacity Function of Temperature Curve Name
  {3174a898-7567-4f72-81d9-48e7c2fffca6}, !- Total Cooling Capacity Function of Flow Fraction Curve Name
  {a923285c-9e3a-4194-ab2f-14fc701efc6d}, !- Energy Input Ratio Function of Temperature Curve Name
  {07a6243f-4f2c-4afa-bacf-81bfe05447e9}, !- Energy Input Ratio Function of Flow Fraction Curve Name
  {c339d888-f39c-4d10-b5f1-84ca66168d63}, !- Part Load Fraction Correlation Curve Name
  -25,                                    !- Minimum Outdoor Dry-Bulb Temperature for Compressor Operation {C}
  ,                                       !- Nominal Time for Condensate Removal to Begin {s}
  ,                                       !- Ratio of Initial Moisture Evaporation Rate and Steady State Latent Capacity {dimensionless}
  ,                                       !- Maximum Cycling Rate {cycles/hr}
  ,                                       !- Latent Capacity Time Constant {s}
  ,                                       !- Condenser Air Inlet Node Name
  AirCooled,                              !- Condenser Type
  0,                                      !- Evaporative Condenser Effectiveness {dimensionless}
  Autosize,                               !- Evaporative Condenser Air Flow Rate {m3/s}
  Autosize,                               !- Evaporative Condenser Pump Rated Power Consumption {W}
  0,                                      !- Crankcase Heater Capacity {W}
  0,                                      !- Maximum Outdoor Dry-Bulb Temperature for Crankcase Heater Operation {C}
  ,                                       !- Supply Water Storage Tank Name
  ,                                       !- Condensate Collection Water Storage Tank Name
  0,                                      !- Basin Heater Capacity {W/K}
  10,                                     !- Basin Heater Setpoint Temperature {C}
  ;                                       !- Basin Heater Operating Schedule Name

OS:Curve:Biquadratic,
  {56405d61-f351-4602-9d14-47e8799b1064}, !- Handle
  Curve Biquadratic 1,                    !- Name
  0.942587793,                            !- Coefficient1 Constant
  0.009543347,                            !- Coefficient2 x
  0.00068377,                             !- Coefficient3 x**2
  -0.011042676,                           !- Coefficient4 y
  5.249e-06,                              !- Coefficient5 y**2
  -9.72e-06,                              !- Coefficient6 x*y
  17,                                     !- Minimum Value of x
  22,                                     !- Maximum Value of x
  13,                                     !- Minimum Value of y
  46;                                     !- Maximum Value of y

OS:Curve:Quadratic,
  {3174a898-7567-4f72-81d9-48e7c2fffca6}, !- Handle
  Curve Quadratic 1,                      !- Name
  0.8,                                    !- Coefficient1 Constant
  0.2,                                    !- Coefficient2 x
  0,                                      !- Coefficient3 x**2
  0.5,                                    !- Minimum Value of x
  1.5;                                    !- Maximum Value of x

OS:Curve:Biquadratic,
  {a923285c-9e3a-4194-ab2f-14fc701efc6d}, !- Handle
  Curve Biquadratic 2,                    !- Name
  0.342414409,                            !- Coefficient1 Constant
  0.034885008,                            !- Coefficient2 x
  -0.0006237,                             !- Coefficient3 x**2
  0.004977216,                            !- Coefficient4 y
  0.000437951,                            !- Coefficient5 y**2
  -0.000728028,                           !- Coefficient6 x*y
  17,                                     !- Minimum Value of x
  22,                                     !- Maximum Value of x
  13,                                     !- Minimum Value of y
  46;                                     !- Maximum Value of y

OS:Curve:Quadratic,
  {07a6243f-4f2c-4afa-bacf-81bfe05447e9}, !- Handle
  Curve Quadratic 2,                      !- Name
  1.1552,                                 !- Coefficient1 Constant
  -0.1808,                                !- Coefficient2 x
  0.0256,                                 !- Coefficient3 x**2
  0.5,                                    !- Minimum Value of x
  1.5;                                    !- Maximum Value of x

OS:Curve:Quadratic,
  {c339d888-f39c-4d10-b5f1-84ca66168d63}, !- Handle
  Curve Quadratic 3,                      !- Name
  0.85,                                   !- Coefficient1 Constant
  0.15,                                   !- Coefficient2 x
  0,                                      !- Coefficient3 x**2
  0,                                      !- Minimum Value of x
  1;                                      !- Maximum Value of x

OS:Schedule:Constant,
  {8d7f47ff-7806-485c-9d57-d23a1d87c551}, !- Handle
  Always On Discrete,                     !- Name
  {1919f305-f42b-43ee-9ad7-3f17899c93cb}, !- Schedule Type Limits Name
  1;                                      !- Value

OS:ScheduleTypeLimits,
  {1919f305-f42b-43ee-9ad7-3f17899c93cb}, !- Handle
  OnOff,                                  !- Name
  0,                                      !- Lower Limit Value
  1,                                      !- Upper Limit Value
  Discrete,                               !- Numeric Type
  Availability;                           !- Unit Type

OS:Coil:Cooling:DX:SingleSpeed,
  {cb13b86d-b7f9-4676-a49b-1e948b161a23}, !- Handle
  CC with numbers,                        !- Name
  {8d7f47ff-7806-485c-9d57-d23a1d87c551}, !- Availability Schedule Name
  autosize,                               !- Rated Total Cooling Capacity {W}
  autosize,                               !- Rated Sensible Heat Ratio
  3,                                      !- Rated COP {W/W}
  autosize,                               !- Rated Air Flow Rate {m3/s}
  773.3,                                  !- Rated Evaporator Fan Power Per Volume Flow Rate {W/(m3/s)}
  ,                                       !- Air Inlet Node Name
  ,                                       !- Air Outlet Node Name
  {d04abe47-4b2b-4bd6-b6bd-74c8af196f17}, !- Total Cooling Capacity Function of Temperature Curve Name
  {2ae7e4e1-81e3-4332-baf6-5734f78d27af}, !- Total Cooling Capacity Function of Flow Fraction Curve Name
  {29c3f319-7165-4d87-8571-4fcf83f3fb39}, !- Energy Input Ratio Function of Temperature Curve Name
  {08a033bb-593c-4df5-bad8-206e0874a349}, !- Energy Input Ratio Function of Flow Fraction Curve Name
  {836fd443-606a-4420-88e8-bc28693858f0}, !- Part Load Fraction Correlation Curve Name
  16,                                     !- Minimum Outdoor Dry-Bulb Temperature for Compressor Operation {C}
  17,                                     !- Nominal Time for Condensate Removal to Begin {s}
  0.18,                                   !- Ratio of Initial Moisture Evaporation Rate and Steady State Latent Capacity {dimensionless}
  0.19,                                   !- Maximum Cycling Rate {cycles/hr}
  20,                                     !- Latent Capacity Time Constant {s}
  ,                                       !- Condenser Air Inlet Node Name
  EvaporativelyCooled,                    !- Condenser Type
  0.23,                                   !- Evaporative Condenser Effectiveness {dimensionless}
  Autosize,                               !- Evaporative Condenser Air Flow Rate {m3/s}
  Autosize,                               !- Evaporative Condenser Pump Rated Power Consumption {W}
  26,                                     !- Crankcase Heater Capacity {W}
  27,                                     !- Maximum Outdoor Dry-Bulb Temperature for Crankcase Heater Operation {C}
  ,                                       !- Supply Water Storage Tank Name
  ,                                       !- Condensate Collection Water Storage Tank Name
  0,                                      !- Basin Heater Capacity {W/K}
  10,                                     !- Basin Heater Setpoint Temperature {C}
  ;                                       !- Basin Heater Operating Schedule Name

OS:Curve:Biquadratic,
  {d04abe47-4b2b-4bd6-b6bd-74c8af196f17}, !- Handle
  Curve Biquadratic 3,                    !- Name
  0.942587793,                            !- Coefficient1 Constant
  0.009543347,                            !- Coefficient2 x
  0.00068377,                             !- Coefficient3 x**2
  -0.011042676,                           !- Coefficient4 y
  5.249e-06,                              !- Coefficient5 y**2
  -9.72e-06,                              !- Coefficient6 x*y
  17,                                     !- Minimum Value of x
  22,                                     !- Maximum Value of x
  13,                                     !- Minimum Value of y
  46;                                     !- Maximum Value of y

OS:Curve:Quadratic,
  {2ae7e4e1-81e3-4332-baf6-5734f78d27af}, !- Handle
  Curve Quadratic 4,                      !- Name
  0.8,                                    !- Coefficient1 Constant
  0.2,                                    !- Coefficient2 x
  0,                                      !- Coefficient3 x**2
  0.5,                                    !- Minimum Value of x
  1.5;                                    !- Maximum Value of x

OS:Curve:Biquadratic,
  {29c3f319-7165-4d87-8571-4fcf83f3fb39}, !- Handle
  Curve Biquadratic 4,                    !- Name
  0.342414409,                            !- Coefficient1 Constant
  0.034885008,                            !- Coefficient2 x
  -0.0006237,                             !- Coefficient3 x**2
  0.004977216,                            !- Coefficient4 y
  0.000437951,                            !- Coefficient5 y**2
  -0.000728028,                           !- Coefficient6 x*y
  17,                                     !- Minimum Value of x
  22,                                     !- Maximum Value of x
  13,                                     !- Minimum Value of y
  46;                                     !- Maximum Value of y

OS:Curve:Quadratic,
  {08a033bb-593c-4df5-bad8-206e0874a349}, !- Handle
  Curve Quadratic 5,                      !- Name
  1.1552,                                 !- Coefficient1 Constant
  -0.1808,                                !- Coefficient2 x
  0.0256,                                 !- Coefficient3 x**2
  0.5,                                    !- Minimum Value of x
  1.5;                                    !- Maximum Value of x

OS:Curve:Quadratic,
  {836fd443-606a-4420-88e8-bc28693858f0}, !- Handle
  Curve Quadratic 6,                      !- Name
  0.85,                                   !- Coefficient1 Constant
  0.15,                                   !- Coefficient2 x
  0,                                      !- Coefficient3 x**2
  0,                                      !- Minimum Value of x
  1;                                      !- Maximum Value of x

