
OS:Version,
  {a9f3ac7d-c74c-4b18-9c85-87137e09943e}, !- Handle
  3.4.0;                                  !- Version Identifier

OS:Coil:Cooling:DX:SingleSpeed,
  {7c437528-492e-419f-a287-5a7883e25d35}, !- Handle
  Coil Cooling DX Single Speed 1,         !- Name
  {2eeb78a8-7a14-422e-917b-0c43ea164be8}, !- Availability Schedule Name
  autosize,                               !- Rated Total Cooling Capacity {W}
  autosize,                               !- Rated Sensible Heat Ratio
  3,                                      !- Rated COP {W/W}
  autosize,                               !- Rated Air Flow Rate {m3/s}
  773.3,                                  !- Rated Evaporator Fan Power Per Volume Flow Rate {W/(m3/s)}
  ,                                       !- Air Inlet Node Name
  ,                                       !- Air Outlet Node Name
  {07e67e15-5801-4b52-88bb-68a9ff7d9154}, !- Total Cooling Capacity Function of Temperature Curve Name
  {e737adbb-cb6b-4fbe-968c-34ba8670ce7c}, !- Total Cooling Capacity Function of Flow Fraction Curve Name
  {5ce643b6-7c4b-4dbb-9bea-9e8692092cba}, !- Energy Input Ratio Function of Temperature Curve Name
  {21657a85-99e5-4a73-a70d-f8ee401944c0}, !- Energy Input Ratio Function of Flow Fraction Curve Name
  {c33fffaa-3d1c-4a86-ad45-6e42b612f23a}, !- Part Load Fraction Correlation Curve Name
  -25,                                    !- Minimum Outdoor Dry-Bulb Temperature for Compressor Operation {C}
  ,                                       !- Nominal Time for Condensate Removal to Begin {s}
  ,                                       !- Ratio of Initial Moisture Evaporation Rate and Steady State Latent Capacity {dimensionless}
  ,                                       !- Maximum Cycling Rate {cycles/hr}
  ,                                       !- Latent Capacity Time Constant {s}
  ,                                       !- Condenser Air Inlet Node Name
  AirCooled,                              !- Condenser Type
  0,                                      !- Evaporative Condenser Effectiveness {dimensionless}
  Autosize,                               !- Evaporative Condenser Air Flow Rate {m3/s}
  Autosize,                               !- Evaporative Condenser Pump Rated Power Consumption {W}
  0,                                      !- Crankcase Heater Capacity {W}
  0,                                      !- Maximum Outdoor Dry-Bulb Temperature for Crankcase Heater Operation {C}
  ,                                       !- Supply Water Storage Tank Name
  ,                                       !- Condensate Collection Water Storage Tank Name
  0,                                      !- Basin Heater Capacity {W/K}
  10,                                     !- Basin Heater Setpoint Temperature {C}
  ;                                       !- Basin Heater Operating Schedule Name

OS:Curve:Biquadratic,
  {07e67e15-5801-4b52-88bb-68a9ff7d9154}, !- Handle
  Curve Biquadratic 1,                    !- Name
  0.942587793,                            !- Coefficient1 Constant
  0.009543347,                            !- Coefficient2 x
  0.00068377,                             !- Coefficient3 x**2
  -0.011042676,                           !- Coefficient4 y
  5.249e-06,                              !- Coefficient5 y**2
  -9.72e-06,                              !- Coefficient6 x*y
  17,                                     !- Minimum Value of x
  22,                                     !- Maximum Value of x
  13,                                     !- Minimum Value of y
  46;                                     !- Maximum Value of y

OS:Curve:Quadratic,
  {e737adbb-cb6b-4fbe-968c-34ba8670ce7c}, !- Handle
  Curve Quadratic 1,                      !- Name
  0.8,                                    !- Coefficient1 Constant
  0.2,                                    !- Coefficient2 x
  0,                                      !- Coefficient3 x**2
  0.5,                                    !- Minimum Value of x
  1.5;                                    !- Maximum Value of x

OS:Curve:Biquadratic,
  {5ce643b6-7c4b-4dbb-9bea-9e8692092cba}, !- Handle
  Curve Biquadratic 2,                    !- Name
  0.342414409,                            !- Coefficient1 Constant
  0.034885008,                            !- Coefficient2 x
  -0.0006237,                             !- Coefficient3 x**2
  0.004977216,                            !- Coefficient4 y
  0.000437951,                            !- Coefficient5 y**2
  -0.000728028,                           !- Coefficient6 x*y
  17,                                     !- Minimum Value of x
  22,                                     !- Maximum Value of x
  13,                                     !- Minimum Value of y
  46;                                     !- Maximum Value of y

OS:Curve:Quadratic,
  {21657a85-99e5-4a73-a70d-f8ee401944c0}, !- Handle
  Curve Quadratic 2,                      !- Name
  1.1552,                                 !- Coefficient1 Constant
  -0.1808,                                !- Coefficient2 x
  0.0256,                                 !- Coefficient3 x**2
  0.5,                                    !- Minimum Value of x
  1.5;                                    !- Maximum Value of x

OS:Curve:Quadratic,
  {c33fffaa-3d1c-4a86-ad45-6e42b612f23a}, !- Handle
  Curve Quadratic 3,                      !- Name
  0.85,                                   !- Coefficient1 Constant
  0.15,                                   !- Coefficient2 x
  0,                                      !- Coefficient3 x**2
  0,                                      !- Minimum Value of x
  1;                                      !- Maximum Value of x

OS:Schedule:Constant,
  {2eeb78a8-7a14-422e-917b-0c43ea164be8}, !- Handle
  Always On Discrete,                     !- Name
  {b481a698-5c0b-400c-b06e-8530f1bb9bbc}, !- Schedule Type Limits Name
  1;                                      !- Value

OS:ScheduleTypeLimits,
  {b481a698-5c0b-400c-b06e-8530f1bb9bbc}, !- Handle
  OnOff,                                  !- Name
  0,                                      !- Lower Limit Value
  1,                                      !- Upper Limit Value
  Discrete,                               !- Numeric Type
  Availability;                           !- Unit Type

