
OS:Version,
  {41f9d03d-d5aa-411c-85e8-ed737ddcd6ef}, !- Handle
  1.9.4;                                  !- Version Identifier

OS:Construction,
  {d17a2501-8ddb-4004-8a73-31f7b356f7ed}, !- Handle
  Interior Window,                        !- Name
  ,                                       !- Surface Rendering Name
  {4efb89db-6f1d-4992-b912-3f801c383b9f}; !- Layer 1

OS:WindowMaterial:SimpleGlazingSystem,
  {4efb89db-6f1d-4992-b912-3f801c383b9f}, !- Handle
  Simple Glazing,                         !- Name
  3.23646,                                !- U-Factor {W/m2-K}
  0.39,                                   !- Solar Heat Gain Coefficient
  0.6;                                    !- Visible Transmittance

OS:ComponentData,
  {da7a1355-fef9-411b-b682-6f03a1f16c9c}, !- Handle
  Component Data 1,                       !- Name
  {aef4f872-7a68-4883-964e-454207894b8f}, !- UUID
  {1dc556d8-66e4-4346-bd62-7f9238360512}, !- Version UUID
  1447436242,                             !- Creation Timestamp
  1447436242,                             !- Version Timestamp
  {d17a2501-8ddb-4004-8a73-31f7b356f7ed}, !- Name of Object 1
  {4efb89db-6f1d-4992-b912-3f801c383b9f}; !- Name of Object 2

